(PID.TID 0000.0001) 
(PID.TID 0000.0001) // ======================================================
(PID.TID 0000.0001) //                      MITgcm UV
(PID.TID 0000.0001) //                      =========
(PID.TID 0000.0001) // ======================================================
(PID.TID 0000.0001) // execution environment starting up...
(PID.TID 0000.0001) 
(PID.TID 0000.0001) // MITgcmUV version:  checkpoint65g
(PID.TID 0000.0001) // Build user:        jahn
(PID.TID 0000.0001) // Build host:        node199
(PID.TID 0000.0001) // Build date:        Mon Dec  8 13:46:45 EST 2014
(PID.TID 0000.0001) 
(PID.TID 0000.0001) // =======================================================
(PID.TID 0000.0001) // Execution Environment parameter file "eedata"
(PID.TID 0000.0001) // =======================================================
(PID.TID 0000.0001) ># Example "eedata" file
(PID.TID 0000.0001) ># Lines beginning "#" are comments
(PID.TID 0000.0001) ># nTx - No. threads per process in X
(PID.TID 0000.0001) ># nTy - No. threads per process in Y
(PID.TID 0000.0001) > &EEPARMS
(PID.TID 0000.0001) > nTx=1,nTy=1
(PID.TID 0000.0001) > /
(PID.TID 0000.0001) ># Note: Some systems use & as the
(PID.TID 0000.0001) ># namelist terminator. Other systems
(PID.TID 0000.0001) ># use a / character (as shown here).
(PID.TID 0000.0001) 
(PID.TID 0000.0001) // =======================================================
(PID.TID 0000.0001) // Computational Grid Specification ( see files "SIZE.h" )
(PID.TID 0000.0001) //                                  ( and "eedata"       )
(PID.TID 0000.0001) // =======================================================
(PID.TID 0000.0001)      nPx =    1 ; /* No. processes in X */
(PID.TID 0000.0001)      nPy =    1 ; /* No. processes in Y */
(PID.TID 0000.0001)      nSx =    1 ; /* No. tiles in X per process */
(PID.TID 0000.0001)      nSy =    1 ; /* No. tiles in Y per process */
(PID.TID 0000.0001)      sNx =    1 ; /* Tile size in X */
(PID.TID 0000.0001)      sNy =    1 ; /* Tile size in Y */
(PID.TID 0000.0001)      OLx =    2 ; /* Tile overlap distance in X */
(PID.TID 0000.0001)      OLy =    2 ; /* Tile overlap distance in Y */
(PID.TID 0000.0001)      nTx =    1 ; /* No. threads in X per process */
(PID.TID 0000.0001)      nTy =    1 ; /* No. threads in Y per process */
(PID.TID 0000.0001)       Nr =   35 ; /* No. levels in the vertical   */
(PID.TID 0000.0001)       Nx =    1 ; /* Total domain size in X ( = nPx*nSx*sNx ) */
(PID.TID 0000.0001)       Ny =    1 ; /* Total domain size in Y ( = nPy*nSy*sNy ) */
(PID.TID 0000.0001)   nTiles =    1 ; /* Total no. tiles per process ( = nSx*nSy ) */
(PID.TID 0000.0001)   nProcs =    1 ; /* Total no. processes ( = nPx*nPy ) */
(PID.TID 0000.0001) nThreads =    1 ; /* Total no. threads per process ( = nTx*nTy ) */
(PID.TID 0000.0001) usingMPI =    F ; /* Flag used to control whether MPI is in use */
(PID.TID 0000.0001)                   /*  note: To execute a program with MPI calls */
(PID.TID 0000.0001)                   /*  it must be launched appropriately e.g     */
(PID.TID 0000.0001)                   /*  "mpirun -np 64 ......"                    */
(PID.TID 0000.0001) useCoupler=    F ;/* Flag used to control communications with   */
(PID.TID 0000.0001)                   /*  other model components, through a coupler */
(PID.TID 0000.0001) debugMode =    F ; /* print debug msg. (sequence of S/R calls)  */
(PID.TID 0000.0001) printMapIncludesZeros=    F ; /* print zeros in Std.Output maps */
(PID.TID 0000.0001) maxLengthPrt1D=   65 /* maxLength of 1D array printed to StdOut */
(PID.TID 0000.0001) 
(PID.TID 0000.0001) // ======================================================
(PID.TID 0000.0001) // Mapping of tiles to threads
(PID.TID 0000.0001) // ======================================================
(PID.TID 0000.0001) // -o- Thread   1, tiles (   1:   1,   1:   1)
(PID.TID 0000.0001) 
(PID.TID 0000.0001) // ======================================================
(PID.TID 0000.0001) // Tile <-> Tile connectvity table
(PID.TID 0000.0001) // ======================================================
(PID.TID 0000.0001) // Tile number: 000001 (process no. = 000000)
(PID.TID 0000.0001) //        WEST: Tile = 000001, Process = 000000, Comm = put
(PID.TID 0000.0001) //                bi = 000001, bj = 000001
(PID.TID 0000.0001) //        EAST: Tile = 000001, Process = 000000, Comm = put
(PID.TID 0000.0001) //                bi = 000001, bj = 000001
(PID.TID 0000.0001) //       SOUTH: Tile = 000001, Process = 000000, Comm = put
(PID.TID 0000.0001) //                bi = 000001, bj = 000001
(PID.TID 0000.0001) //       NORTH: Tile = 000001, Process = 000000, Comm = put
(PID.TID 0000.0001) //                bi = 000001, bj = 000001
(PID.TID 0000.0001) 
(PID.TID 0000.0001)  INI_PARMS: opening model parameter file "data"
(PID.TID 0000.0001)  OPEN_COPY_DATA_FILE: opening file data
(PID.TID 0000.0001) // =======================================================
(PID.TID 0000.0001) // Removing comments from "data"
(PID.TID 0000.0001) // =======================================================
(PID.TID 0000.0001)    1 &PARM01
(PID.TID 0000.0001)    2 tRef= 26.5, 26.1, 26., 25.5, 25.4, 24.9, 24.5, 24.0, 23.7,
(PID.TID 0000.0001)    3       23.3, 23.1, 22.8, 22.5, 22.1, 21.6, 20.6, 19.5, 18.4,
(PID.TID 0000.0001)    4       17.3, 16.6, 15.5, 14.6, 13.8, 13.1, 11.6, 10.1, 7.7,
(PID.TID 0000.0001)    5       5.3, 4.1, 3.7, 3.7, 3.4, 3.0, 2.8, 2.6,
(PID.TID 0000.0001)    6 sRef= 35*35.00,
(PID.TID 0000.0001)    7 no_slip_sides=.false.,
(PID.TID 0000.0001)    8 no_slip_bottom=.TRUE.,
(PID.TID 0000.0001)    9 viscAz=0.e0,
(PID.TID 0000.0001)   10 viscAh=0.e0,
(PID.TID 0000.0001)   11 diffKhT=1.E2,
(PID.TID 0000.0001)   12 diffKzT=1.E-4,
(PID.TID 0000.0001)   13 diffKhS=0.D0,
(PID.TID 0000.0001)   14 diffKzS=0.D0,
(PID.TID 0000.0001)   15 beta=1.E-11,
(PID.TID 0000.0001)   16 tAlpha=2.E-4,
(PID.TID 0000.0001)   17 sBeta =7.4E-4,
(PID.TID 0000.0001)   18 gravity=9.81,
(PID.TID 0000.0001)   19 gBaro=9.81,
(PID.TID 0000.0001)   20 rigidLid=.TRUE.,
(PID.TID 0000.0001)   21 implicitFreeSurface=.false.,
(PID.TID 0000.0001)   22 eosType='JMD95Z',
(PID.TID 0000.0001)   23 saltStepping=.FALSE.,
(PID.TID 0000.0001)   24 tempStepping=.TRUE.,
(PID.TID 0000.0001)   25 tempAdvection=.TRUE.,
(PID.TID 0000.0001)   26 momStepping=.FALSE.,
(PID.TID 0000.0001)   27 implicitDiffusion=.true.,
(PID.TID 0000.0001)   28 implicitViscosity=.true.,
(PID.TID 0000.0001)   29 allowFreezing=.false.,
(PID.TID 0000.0001)   30 useSingleCpuIO=.TRUE.,
(PID.TID 0000.0001)   31 useCDscheme=.FALSE.,
(PID.TID 0000.0001)   32 tempAdvScheme = 3,
(PID.TID 0000.0001)   33 saltAdvScheme = 3,
(PID.TID 0000.0001)   34 readBinaryPrec= 64,
(PID.TID 0000.0001)   35 writeBinaryPrec= 64,
(PID.TID 0000.0001)   36 /
(PID.TID 0000.0001)   37
(PID.TID 0000.0001)   38 &PARM02
(PID.TID 0000.0001)   39 cg2dMaxIters=300,
(PID.TID 0000.0001)   40 cg2dTargetResidual=1.E-7,
(PID.TID 0000.0001)   41 /
(PID.TID 0000.0001)   42
(PID.TID 0000.0001)   43 &PARM03
(PID.TID 0000.0001)   44  nIter0=0,
(PID.TID 0000.0001)   45  nTimeSteps=4,
(PID.TID 0000.0001)   46  deltaTmom= 3600.,
(PID.TID 0000.0001)   47  deltaTtracer= 3600.,
(PID.TID 0000.0001)   48  deltaTClock = 3600.,
(PID.TID 0000.0001)   49  cAdjFreq    = 0.,
(PID.TID 0000.0001)   50  abEps=0.1,
(PID.TID 0000.0001)   51  pChkptFreq  = 31104000.0,
(PID.TID 0000.0001)   52  chkptFreq   = 31104000.0,
(PID.TID 0000.0001)   53  dumpFreq = 3600.,
(PID.TID 0000.0001)   54  dumpInitAndLast = .TRUE.,
(PID.TID 0000.0001)   55  taveFreq    = 2592000.,
(PID.TID 0000.0001)   56  monitorFreq = 1.,
(PID.TID 0000.0001)   57  tauThetaClimRelax=86400.,
(PID.TID 0000.0001)   58  tauSaltClimRelax=0.,
(PID.TID 0000.0001)   59  periodicExternalForcing=.TRUE.,
(PID.TID 0000.0001)   60  externForcingPeriod=2592000.,
(PID.TID 0000.0001)   61  externForcingCycle=31104000.,
(PID.TID 0000.0001)   62 /
(PID.TID 0000.0001)   63
(PID.TID 0000.0001)   64 &PARM04
(PID.TID 0000.0001)   65 usingCartesianGrid=.FALSE.,
(PID.TID 0000.0001)   66 usingSphericalPolarGrid=.TRUE.,
(PID.TID 0000.0001)   67 delX=1*1.E0,
(PID.TID 0000.0001)   68 delY=1*1.E0,
(PID.TID 0000.0001)   69 delZ=14*10, 5*15, 4*20, 2*50, 100, 2*150, 200, 300, 3*400, 2*500,
(PID.TID 0000.0001)   70 xgOrigin=0,
(PID.TID 0000.0001)   71 ygOrigin=-45.,
(PID.TID 0000.0001)   72 /
(PID.TID 0000.0001)   73
(PID.TID 0000.0001)   74 &PARM05
(PID.TID 0000.0001)   75 bathyFile=       '../input/input/bathyneg.bin',
(PID.TID 0000.0001)   76 hydrogThetaFile= '../input/input/loc1_temp_janprof.bin',
(PID.TID 0000.0001)   77 hydrogSaltFile=  '../input/input/salt_uniform.bin',
(PID.TID 0000.0001)   78 zonalWindFile=   '../input/input/loc1_taux_monsurf.bin',
(PID.TID 0000.0001)   79 meridWindFile=   '../input/input/loc1_tauy_monsurf.bin',
(PID.TID 0000.0001)   80 thetaClimFile=   '../input/input/loc1_temp_monsurf.bin',
(PID.TID 0000.0001)   81 saltClimFile=    '',
(PID.TID 0000.0001)   82 surfQFile=       '',
(PID.TID 0000.0001)   83 EmPmRFile=       '',
(PID.TID 0000.0001)   84 /
(PID.TID 0000.0001) // =======================================================
(PID.TID 0000.0001) // Parameter file "data"
(PID.TID 0000.0001) // =======================================================
(PID.TID 0000.0001) >#
(PID.TID 0000.0001) ># ******************************
(PID.TID 0000.0001) ># Model parameters
(PID.TID 0000.0001) ># Continuous equation parameters
(PID.TID 0000.0001) ># ******************************
(PID.TID 0000.0001) >&PARM01
(PID.TID 0000.0001) >tRef= 26.5, 26.1, 26., 25.5, 25.4, 24.9, 24.5, 24.0, 23.7,
(PID.TID 0000.0001) >      23.3, 23.1, 22.8, 22.5, 22.1, 21.6, 20.6, 19.5, 18.4,
(PID.TID 0000.0001) >      17.3, 16.6, 15.5, 14.6, 13.8, 13.1, 11.6, 10.1, 7.7,
(PID.TID 0000.0001) >      5.3, 4.1, 3.7, 3.7, 3.4, 3.0, 2.8, 2.6,
(PID.TID 0000.0001) >sRef= 35*35.00,
(PID.TID 0000.0001) >no_slip_sides=.false.,
(PID.TID 0000.0001) >no_slip_bottom=.TRUE.,
(PID.TID 0000.0001) >viscAz=0.e0,
(PID.TID 0000.0001) >viscAh=0.e0,
(PID.TID 0000.0001) >diffKhT=1.E2,
(PID.TID 0000.0001) >diffKzT=1.E-4,
(PID.TID 0000.0001) >diffKhS=0.D0,
(PID.TID 0000.0001) >diffKzS=0.D0,
(PID.TID 0000.0001) >beta=1.E-11,
(PID.TID 0000.0001) >tAlpha=2.E-4,
(PID.TID 0000.0001) >sBeta =7.4E-4,
(PID.TID 0000.0001) >gravity=9.81,
(PID.TID 0000.0001) >gBaro=9.81,
(PID.TID 0000.0001) >rigidLid=.TRUE.,
(PID.TID 0000.0001) >implicitFreeSurface=.false.,
(PID.TID 0000.0001) >eosType='JMD95Z',
(PID.TID 0000.0001) >saltStepping=.FALSE.,
(PID.TID 0000.0001) >tempStepping=.TRUE.,
(PID.TID 0000.0001) >tempAdvection=.TRUE.,
(PID.TID 0000.0001) >momStepping=.FALSE.,
(PID.TID 0000.0001) >implicitDiffusion=.true.,
(PID.TID 0000.0001) >implicitViscosity=.true.,
(PID.TID 0000.0001) >allowFreezing=.false.,
(PID.TID 0000.0001) >useSingleCpuIO=.TRUE.,
(PID.TID 0000.0001) >useCDscheme=.FALSE.,
(PID.TID 0000.0001) >tempAdvScheme = 3,
(PID.TID 0000.0001) >saltAdvScheme = 3,
(PID.TID 0000.0001) >readBinaryPrec= 64,
(PID.TID 0000.0001) >writeBinaryPrec= 64,
(PID.TID 0000.0001) >/
(PID.TID 0000.0001) >
(PID.TID 0000.0001) ># **************************
(PID.TID 0000.0001) ># Elliptic solver parameters
(PID.TID 0000.0001) ># **************************
(PID.TID 0000.0001) >&PARM02
(PID.TID 0000.0001) >cg2dMaxIters=300,
(PID.TID 0000.0001) >cg2dTargetResidual=1.E-7,
(PID.TID 0000.0001) >/
(PID.TID 0000.0001) >
(PID.TID 0000.0001) ># ************************
(PID.TID 0000.0001) ># Time stepping parameters
(PID.TID 0000.0001) ># ************************
(PID.TID 0000.0001) >&PARM03
(PID.TID 0000.0001) > nIter0=0,
(PID.TID 0000.0001) >#nTimeSteps=86400,
(PID.TID 0000.0001) > nTimeSteps=4,
(PID.TID 0000.0001) > deltaTmom= 3600.,
(PID.TID 0000.0001) > deltaTtracer= 3600.,
(PID.TID 0000.0001) > deltaTClock = 3600.,
(PID.TID 0000.0001) > cAdjFreq    = 0.,
(PID.TID 0000.0001) > abEps=0.1,
(PID.TID 0000.0001) > pChkptFreq  = 31104000.0,
(PID.TID 0000.0001) > chkptFreq   = 31104000.0,
(PID.TID 0000.0001) > dumpFreq = 3600.,
(PID.TID 0000.0001) > dumpInitAndLast = .TRUE.,
(PID.TID 0000.0001) > taveFreq    = 2592000.,
(PID.TID 0000.0001) >#monitorFreq = 2592000.,
(PID.TID 0000.0001) > monitorFreq = 1.,
(PID.TID 0000.0001) > tauThetaClimRelax=86400.,
(PID.TID 0000.0001) > tauSaltClimRelax=0.,
(PID.TID 0000.0001) > periodicExternalForcing=.TRUE.,
(PID.TID 0000.0001) > externForcingPeriod=2592000.,
(PID.TID 0000.0001) > externForcingCycle=31104000.,
(PID.TID 0000.0001) >/
(PID.TID 0000.0001) >
(PID.TID 0000.0001) ># *******************
(PID.TID 0000.0001) ># Gridding parameters
(PID.TID 0000.0001) ># *******************
(PID.TID 0000.0001) >&PARM04
(PID.TID 0000.0001) >usingCartesianGrid=.FALSE.,
(PID.TID 0000.0001) >usingSphericalPolarGrid=.TRUE.,
(PID.TID 0000.0001) >delX=1*1.E0,
(PID.TID 0000.0001) >delY=1*1.E0,
(PID.TID 0000.0001) >delZ=14*10, 5*15, 4*20, 2*50, 100, 2*150, 200, 300, 3*400, 2*500,
(PID.TID 0000.0001) >xgOrigin=0,
(PID.TID 0000.0001) >ygOrigin=-45.,
(PID.TID 0000.0001) >/
(PID.TID 0000.0001) >
(PID.TID 0000.0001) ># **********
(PID.TID 0000.0001) ># Data Files
(PID.TID 0000.0001) ># **********
(PID.TID 0000.0001) >&PARM05
(PID.TID 0000.0001) >bathyFile=       '../input/input/bathyneg.bin',
(PID.TID 0000.0001) >hydrogThetaFile= '../input/input/loc1_temp_janprof.bin',
(PID.TID 0000.0001) >hydrogSaltFile=  '../input/input/salt_uniform.bin',
(PID.TID 0000.0001) >zonalWindFile=   '../input/input/loc1_taux_monsurf.bin',
(PID.TID 0000.0001) >meridWindFile=   '../input/input/loc1_tauy_monsurf.bin',
(PID.TID 0000.0001) >thetaClimFile=   '../input/input/loc1_temp_monsurf.bin',
(PID.TID 0000.0001) >saltClimFile=    '',
(PID.TID 0000.0001) >surfQFile=       '',
(PID.TID 0000.0001) >EmPmRFile=       '',
(PID.TID 0000.0001) >/
(PID.TID 0000.0001) 
(PID.TID 0000.0001)  INI_PARMS ; starts to read PARM01
(PID.TID 0000.0001)  INI_PARMS ; read PARM01 : OK
(PID.TID 0000.0001)  INI_PARMS ; starts to read PARM02
(PID.TID 0000.0001)  INI_PARMS ; read PARM02 : OK
(PID.TID 0000.0001)  INI_PARMS ; starts to read PARM03
(PID.TID 0000.0001)  INI_PARMS ; read PARM03 : OK
(PID.TID 0000.0001)  INI_PARMS ; starts to read PARM04
(PID.TID 0000.0001)  INI_PARMS ; read PARM04 : OK
(PID.TID 0000.0001)  INI_PARMS ; starts to read PARM05
(PID.TID 0000.0001)  INI_PARMS ; read PARM05 : OK
(PID.TID 0000.0001)  INI_PARMS: finished reading file "data"
(PID.TID 0000.0001)  PACKAGES_BOOT: opening data.pkg
(PID.TID 0000.0001)  OPEN_COPY_DATA_FILE: opening file data.pkg
(PID.TID 0000.0001) // =======================================================
(PID.TID 0000.0001) // Removing comments from "data.pkg"
(PID.TID 0000.0001) // =======================================================
(PID.TID 0000.0001)    1  &PACKAGES
(PID.TID 0000.0001)    2  usePTRACERS=.TRUE.
(PID.TID 0000.0001)    3  useGCHEM=.TRUE.,
(PID.TID 0000.0001)    4  useKPP=.TRUE.,
(PID.TID 0000.0001)    5  useMNC=.TRUE.,
(PID.TID 0000.0001)    6  useEXF=.TRUE.,
(PID.TID 0000.0001)    7  useCAL=.TRUE.,
(PID.TID 0000.0001)    8  useDIAGNOSTICS=.TRUE.,
(PID.TID 0000.0001)    9  /
(PID.TID 0000.0001) // =======================================================
(PID.TID 0000.0001) // Parameter file "data.pkg"
(PID.TID 0000.0001) // =======================================================
(PID.TID 0000.0001) ># Packages
(PID.TID 0000.0001) > &PACKAGES
(PID.TID 0000.0001) > usePTRACERS=.TRUE.
(PID.TID 0000.0001) > useGCHEM=.TRUE.,
(PID.TID 0000.0001) > useKPP=.TRUE.,
(PID.TID 0000.0001) > useMNC=.TRUE.,
(PID.TID 0000.0001) > useEXF=.TRUE.,
(PID.TID 0000.0001) > useCAL=.TRUE.,
(PID.TID 0000.0001) > useDIAGNOSTICS=.TRUE.,
(PID.TID 0000.0001) > /
(PID.TID 0000.0001) 
(PID.TID 0000.0001)  PACKAGES_BOOT: finished reading data.pkg
(PID.TID 0000.0001)  PACKAGES_BOOT: On/Off package Summary
 --------  pkgs with a standard "usePKG" On/Off switch in "data.pkg":  --------
 pkg/kpp                  compiled   and   used ( useKPP                   = T )
 pkg/cal                  compiled   and   used ( useCAL                   = T )
 pkg/exf                  compiled   and   used ( useEXF                   = T )
 pkg/sbo                  compiled but not used ( useSBO                   = F )
 pkg/ptracers             compiled   and   used ( usePTRACERS              = T )
 pkg/gchem                compiled   and   used ( useGCHEM                 = T )
 pkg/diagnostics          compiled   and   used ( useDiagnostics           = T )
 pkg/mnc                  compiled   and   used ( useMNC                   = T )
 -------- pkgs without standard "usePKG" On/Off switch in "data.pkg":  --------
 pkg/generic_advdiff      compiled   and   used ( useGAD                   = T )
 pkg/mom_common           compiled but not used ( momStepping              = F )
 pkg/mom_vecinv           compiled but not used ( +vectorInvariantMomentum = F )
 pkg/mom_fluxform         compiled but not used ( & not vectorInvariantMom = F )
 pkg/monitor              compiled   and   used ( monitorFreq > 0.         = T )
 pkg/timeave              compiled   and   used ( taveFreq > 0.            = T )
 pkg/debug                compiled but not used ( debugMode                = F )
 pkg/rw                   compiled   and   used
 pkg/mdsio                compiled   and   used
(PID.TID 0000.0001)  PACKAGES_BOOT: End of package Summary
(PID.TID 0000.0001) 
(PID.TID 0000.0001)  MNC_READPARMS: opening file 'data.mnc'
(PID.TID 0000.0001)  OPEN_COPY_DATA_FILE: opening file data.mnc
(PID.TID 0000.0001) // =======================================================
(PID.TID 0000.0001) // Removing comments from "data.mnc"
(PID.TID 0000.0001) // =======================================================
(PID.TID 0000.0001)    1  &MNC_01
(PID.TID 0000.0001)    2  mnc_use_outdir=.TRUE.,
(PID.TID 0000.0001)    3  mnc_outdir_str='mnc_',
(PID.TID 0000.0001)    4  mnc_outdir_date=.TRUE.,
(PID.TID 0000.0001)    5  monitor_mnc=.FALSE.,
(PID.TID 0000.0001)    6  snapshot_mnc=.TRUE.,
(PID.TID 0000.0001)    7  timeave_mnc=.TRUE.,
(PID.TID 0000.0001)    8  pickup_read_mnc=.FALSE.,
(PID.TID 0000.0001)    9  pickup_write_mnc=.FALSE.,
(PID.TID 0000.0001)   10  /
(PID.TID 0000.0001) // =======================================================
(PID.TID 0000.0001) // Parameter file "data.mnc"
(PID.TID 0000.0001) // =======================================================
(PID.TID 0000.0001) ># Example "data.mnc" file
(PID.TID 0000.0001) ># Lines beginning "#" are comments
(PID.TID 0000.0001) > &MNC_01
(PID.TID 0000.0001) ># mnc_echo_gvtypes=.FALSE.,
(PID.TID 0000.0001) ># mnc_use_indir=.FALSE.,
(PID.TID 0000.0001) > mnc_use_outdir=.TRUE.,
(PID.TID 0000.0001) > mnc_outdir_str='mnc_',
(PID.TID 0000.0001) > mnc_outdir_date=.TRUE.,
(PID.TID 0000.0001) > monitor_mnc=.FALSE.,
(PID.TID 0000.0001) > snapshot_mnc=.TRUE.,
(PID.TID 0000.0001) > timeave_mnc=.TRUE.,
(PID.TID 0000.0001) > pickup_read_mnc=.FALSE.,
(PID.TID 0000.0001) > pickup_write_mnc=.FALSE.,
(PID.TID 0000.0001) > /
(PID.TID 0000.0001) ># Note: Some systems use & as the
(PID.TID 0000.0001) ># namelist terminator. Other systems
(PID.TID 0000.0001) ># use a / character.
(PID.TID 0000.0001) 
(PID.TID 0000.0001)  MNC_READPARMS: finished reading data.mnc
(PID.TID 0000.0001) CAL_READPARMS: opening data.cal
(PID.TID 0000.0001)  OPEN_COPY_DATA_FILE: opening file data.cal
(PID.TID 0000.0001) // =======================================================
(PID.TID 0000.0001) // Removing comments from "data.cal"
(PID.TID 0000.0001) // =======================================================
(PID.TID 0000.0001)    1  &CAL_NML
(PID.TID 0000.0001)    2  TheCalendar='model',
(PID.TID 0000.0001)    3  startDate_1=19920101,
(PID.TID 0000.0001)    4  startDate_2=000000,
(PID.TID 0000.0001)    5  calendarDumps = .TRUE.
(PID.TID 0000.0001)    6  /
(PID.TID 0000.0001) // =======================================================
(PID.TID 0000.0001) // Parameter file "data.cal"
(PID.TID 0000.0001) // =======================================================
(PID.TID 0000.0001) >#
(PID.TID 0000.0001) ># *******************
(PID.TID 0000.0001) ># Calendar Parameters
(PID.TID 0000.0001) ># *******************
(PID.TID 0000.0001) > &CAL_NML
(PID.TID 0000.0001) > TheCalendar='model',
(PID.TID 0000.0001) > startDate_1=19920101,
(PID.TID 0000.0001) > startDate_2=000000,
(PID.TID 0000.0001) > calendarDumps = .TRUE.
(PID.TID 0000.0001) > /
(PID.TID 0000.0001) 
(PID.TID 0000.0001) CAL_READPARMS: finished reading data.cal
(PID.TID 0000.0001) EXF_READPARMS: opening data.exf
(PID.TID 0000.0001)  OPEN_COPY_DATA_FILE: opening file data.exf
(PID.TID 0000.0001) // =======================================================
(PID.TID 0000.0001) // Removing comments from "data.exf"
(PID.TID 0000.0001) // =======================================================
(PID.TID 0000.0001)    1  &EXF_NML_01
(PID.TID 0000.0001)    2  exf_albedo        = 0.15,
(PID.TID 0000.0001)    3  exf_iprec         = 64,
(PID.TID 0000.0001)    4  exf_yftype        = 'RL',
(PID.TID 0000.0001)    5  useExfYearlyFields= .TRUE.,
(PID.TID 0000.0001)    6  twoDigitYear      = .TRUE.,
(PID.TID 0000.0001)    7  useExfCheckRange  = .FALSE.,
(PID.TID 0000.0001)    8  /
(PID.TID 0000.0001)    9  &EXF_NML_02
(PID.TID 0000.0001)   10  /
(PID.TID 0000.0001)   11  &EXF_NML_03
(PID.TID 0000.0001)   12  /
(PID.TID 0000.0001)   13  &EXF_NML_04
(PID.TID 0000.0001)   14  /
(PID.TID 0000.0001)   15  &EXF_NML_OBCS
(PID.TID 0000.0001)   16  /
(PID.TID 0000.0001) // =======================================================
(PID.TID 0000.0001) // Parameter file "data.exf"
(PID.TID 0000.0001) // =======================================================
(PID.TID 0000.0001) ># *********************
(PID.TID 0000.0001) ># External Forcing Data
(PID.TID 0000.0001) ># *********************
(PID.TID 0000.0001) >#
(PID.TID 0000.0001) > &EXF_NML_01
(PID.TID 0000.0001) > exf_albedo        = 0.15,
(PID.TID 0000.0001) > exf_iprec         = 64,
(PID.TID 0000.0001) > exf_yftype        = 'RL',
(PID.TID 0000.0001) > useExfYearlyFields= .TRUE.,
(PID.TID 0000.0001) > twoDigitYear      = .TRUE.,
(PID.TID 0000.0001) > useExfCheckRange  = .FALSE.,
(PID.TID 0000.0001) > /
(PID.TID 0000.0001) >#
(PID.TID 0000.0001) > &EXF_NML_02
(PID.TID 0000.0001) > /
(PID.TID 0000.0001) >#
(PID.TID 0000.0001) > &EXF_NML_03
(PID.TID 0000.0001) > /
(PID.TID 0000.0001) >#
(PID.TID 0000.0001) > &EXF_NML_04
(PID.TID 0000.0001) > /
(PID.TID 0000.0001) >#
(PID.TID 0000.0001) > &EXF_NML_OBCS
(PID.TID 0000.0001) > /
(PID.TID 0000.0001) 
(PID.TID 0000.0001) EXF_READPARMS: reading EXF_NML_01
(PID.TID 0000.0001) EXF_READPARMS: reading EXF_NML_02
(PID.TID 0000.0001) EXF_READPARMS: reading EXF_NML_03
(PID.TID 0000.0001) EXF_READPARMS: finished reading data.exf
(PID.TID 0000.0001)  KPP_INIT: opening data.kpp
(PID.TID 0000.0001)  OPEN_COPY_DATA_FILE: opening file data.kpp
(PID.TID 0000.0001) // =======================================================
(PID.TID 0000.0001) // Removing comments from "data.kpp"
(PID.TID 0000.0001) // =======================================================
(PID.TID 0000.0001)    1  &KPP_PARM01
(PID.TID 0000.0001)    2  KPPmixingMaps   = .FALSE.,
(PID.TID 0000.0001)    3  Ricr            = 0.3559
(PID.TID 0000.0001)    4  Riinfty         = 0.6998
(PID.TID 0000.0001)    5  /
(PID.TID 0000.0001)    6
(PID.TID 0000.0001) // =======================================================
(PID.TID 0000.0001) // Parameter file "data.kpp"
(PID.TID 0000.0001) // =======================================================
(PID.TID 0000.0001) >#
(PID.TID 0000.0001) ># ***************
(PID.TID 0000.0001) ># Open boundaries
(PID.TID 0000.0001) ># ***************
(PID.TID 0000.0001) > &KPP_PARM01
(PID.TID 0000.0001) > KPPmixingMaps   = .FALSE.,
(PID.TID 0000.0001) ># KPPwriteState   = .TRUE.,
(PID.TID 0000.0001) ># kpp_dumpFreq    = 2592000.
(PID.TID 0000.0001) ># kpp_tavefreq    = 2592000.
(PID.TID 0000.0001) > Ricr            = 0.3559
(PID.TID 0000.0001) > Riinfty         = 0.6998
(PID.TID 0000.0001) > /
(PID.TID 0000.0001) >
(PID.TID 0000.0001) 
(PID.TID 0000.0001)  KPP_INIT: finished reading data.kpp
(PID.TID 0000.0001)  PTRACERS_READPARMS: opening data.ptracers
(PID.TID 0000.0001)  OPEN_COPY_DATA_FILE: opening file data.ptracers
(PID.TID 0000.0001) // =======================================================
(PID.TID 0000.0001) // Removing comments from "data.ptracers"
(PID.TID 0000.0001) // =======================================================
(PID.TID 0000.0001)    1  &PTRACERS_PARM01
(PID.TID 0000.0001)    2  PTRACERS_numInUse=49,
(PID.TID 0000.0001)    3  PTRACERS_Iter0= 0,
(PID.TID 0000.0001)    4  PTRACERS_advScheme=49*33,
(PID.TID 0000.0001)    5  PTRACERS_diffKh=49*0.E3,
(PID.TID 0000.0001)    6  PTRACERS_diffKr=49*1.E-5,
(PID.TID 0000.0001)    7  PTRACERS_useGMRedi=49*.FALSE.,
(PID.TID 0000.0001)    8  PTRACERS_useKPP=49*.TRUE.,
(PID.TID 0000.0001)    9  PTRACERS_names(1)= 'DIC',
(PID.TID 0000.0001)   10  PTRACERS_names(2)= 'NH4',
(PID.TID 0000.0001)   11  PTRACERS_names(3)= 'NO2',
(PID.TID 0000.0001)   12  PTRACERS_names(4)= 'NO3',
(PID.TID 0000.0001)   13  PTRACERS_names(5)= 'PO4',
(PID.TID 0000.0001)   14  PTRACERS_names(6)= 'SiO2',
(PID.TID 0000.0001)   15  PTRACERS_names(7)= 'FeT',
(PID.TID 0000.0001)   16  PTRACERS_names(8)= 'DOC',
(PID.TID 0000.0001)   17  PTRACERS_names(9)= 'DON',
(PID.TID 0000.0001)   18  PTRACERS_names(10)= 'DOP',
(PID.TID 0000.0001)   19  PTRACERS_names(11)= 'DOFe',
(PID.TID 0000.0001)   20  PTRACERS_names(12)= 'POC',
(PID.TID 0000.0001)   21  PTRACERS_names(13)= 'PON',
(PID.TID 0000.0001)   22  PTRACERS_names(14)= 'POP',
(PID.TID 0000.0001)   23  PTRACERS_names(15)= 'POSi',
(PID.TID 0000.0001)   24  PTRACERS_names(16)= 'POFe',
(PID.TID 0000.0001)   25  PTRACERS_names(17)= 'PIC',
(PID.TID 0000.0001)   26  PTRACERS_names(18)= 'ALK',
(PID.TID 0000.0001)   27  PTRACERS_names(19)= 'O2',
(PID.TID 0000.0001)   28  PTRACERS_names(20)= 'c1',
(PID.TID 0000.0001)   29  PTRACERS_names(21)= 'c2',
(PID.TID 0000.0001)   30  PTRACERS_names(22)= 'c3',
(PID.TID 0000.0001)   31  PTRACERS_names(23)= 'c4',
(PID.TID 0000.0001)   32  PTRACERS_names(24)= 'c5',
(PID.TID 0000.0001)   33  PTRACERS_names(25)= 'c6',
(PID.TID 0000.0001)   34  PTRACERS_names(26)= 'c7',
(PID.TID 0000.0001)   35  PTRACERS_names(27)= 'c8',
(PID.TID 0000.0001)   36  PTRACERS_names(28)= 'n1',
(PID.TID 0000.0001)   37  PTRACERS_names(29)= 'n2',
(PID.TID 0000.0001)   38  PTRACERS_names(30)= 'n3',
(PID.TID 0000.0001)   39  PTRACERS_names(31)= 'n4',
(PID.TID 0000.0001)   40  PTRACERS_names(32)= 'n5',
(PID.TID 0000.0001)   41  PTRACERS_names(33)= 'n6',
(PID.TID 0000.0001)   42  PTRACERS_names(34)= 'n7',
(PID.TID 0000.0001)   43  PTRACERS_names(35)= 'n8',
(PID.TID 0000.0001)   44  PTRACERS_names(36)= 'p1',
(PID.TID 0000.0001)   45  PTRACERS_names(37)= 'p2',
(PID.TID 0000.0001)   46  PTRACERS_names(38)= 'p3',
(PID.TID 0000.0001)   47  PTRACERS_names(39)= 'p4',
(PID.TID 0000.0001)   48  PTRACERS_names(40)= 'p5',
(PID.TID 0000.0001)   49  PTRACERS_names(41)= 'p6',
(PID.TID 0000.0001)   50  PTRACERS_names(42)= 'p7',
(PID.TID 0000.0001)   51  PTRACERS_names(43)= 'p8',
(PID.TID 0000.0001)   52  PTRACERS_names(44)= 'Chl1',
(PID.TID 0000.0001)   53  PTRACERS_names(45)= 'Chl2',
(PID.TID 0000.0001)   54  PTRACERS_names(46)= 'Chl3',
(PID.TID 0000.0001)   55  PTRACERS_names(47)= 'Chl4',
(PID.TID 0000.0001)   56  PTRACERS_names(48)= 'Chl5',
(PID.TID 0000.0001)   57  PTRACERS_names(49)= 'Chl6',
(PID.TID 0000.0001)   58  PTRACERS_units(1)='mmol C/m^3',
(PID.TID 0000.0001)   59  PTRACERS_units(2)='mmol N/m^3',
(PID.TID 0000.0001)   60  PTRACERS_units(3)='mmol N/m^3',
(PID.TID 0000.0001)   61  PTRACERS_units(4)='mmol N/m^3',
(PID.TID 0000.0001)   62  PTRACERS_units(5)='mmol P/m^3',
(PID.TID 0000.0001)   63  PTRACERS_units(6)='mmol Si/m^3',
(PID.TID 0000.0001)   64  PTRACERS_units(7)='mmol Fe/m^3',
(PID.TID 0000.0001)   65  PTRACERS_units(8)='mmol C/m^3',
(PID.TID 0000.0001)   66  PTRACERS_units(9)='mmol N/m^3',
(PID.TID 0000.0001)   67  PTRACERS_units(10)='mmol P/m^3',
(PID.TID 0000.0001)   68  PTRACERS_units(11)='mmol Fe/m^3',
(PID.TID 0000.0001)   69  PTRACERS_units(12)='mmol C/m^3',
(PID.TID 0000.0001)   70  PTRACERS_units(13)='mmol N/m^3',
(PID.TID 0000.0001)   71  PTRACERS_units(14)='mmol P/m^3',
(PID.TID 0000.0001)   72  PTRACERS_units(15)='mmol Si/m^3',
(PID.TID 0000.0001)   73  PTRACERS_units(16)='mmol Fe/m^3',
(PID.TID 0000.0001)   74  PTRACERS_units(17)='mmol C/m^3',
(PID.TID 0000.0001)   75  PTRACERS_units(18)='mmol eq/m^3',
(PID.TID 0000.0001)   76  PTRACERS_units(19)='mmol O/m^3',
(PID.TID 0000.0001)   77  PTRACERS_units(20:27)=8*'mmol C/m^3',
(PID.TID 0000.0001)   78  PTRACERS_units(28:35)=8*'mmol N/m^3',
(PID.TID 0000.0001)   79  PTRACERS_units(36:43)=8*'mmol P/m^3',
(PID.TID 0000.0001)   80  PTRACERS_units(44:49)=6*'mg/m^3',
(PID.TID 0000.0001)   81  PTRACERS_initialFile(1)=      '../input/input/loc1_glodap_tco2_ann-3d.bin',
(PID.TID 0000.0001)   82  PTRACERS_initialFile(2)=      '../input/input/loc1_nh4_y2000.data',
(PID.TID 0000.0001)   83  PTRACERS_initialFile(3)=      '../input/input/loc1_no2_y2000.data',
(PID.TID 0000.0001)   84  PTRACERS_initialFile(4)=      '../input/input/loc1_lev01_nitrate_ann-3d.bin',
(PID.TID 0000.0001)   85  PTRACERS_initialFile(5)=      '../input/input/loc1_lev01_phosphate_ann-3d.bin',
(PID.TID 0000.0001)   86  PTRACERS_initialFile(6)=      '../input/input/loc1_lev01_silicate_ann-3d.bin ',
(PID.TID 0000.0001)   87  PTRACERS_initialFile(7)=      '../input/input/loc1_fet_y2000.data',
(PID.TID 0000.0001)   88  PTRACERS_initialFile(8)=      '../input/input/loc1_doc_y2000.data',
(PID.TID 0000.0001)   89  PTRACERS_initialFile(9)=      '../input/input/loc1_don_y2000.data',
(PID.TID 0000.0001)   90  PTRACERS_initialFile(10)=     '../input/input/loc1_dop_y2000.data',
(PID.TID 0000.0001)   91  PTRACERS_initialFile(11)=     '../input/input/loc1_dofe_y2000.data',
(PID.TID 0000.0001)   92  PTRACERS_initialFile(12)=     '../input/input/loc1_poc_y2000.data',
(PID.TID 0000.0001)   93  PTRACERS_initialFile(13)=     '../input/input/loc1_pon_y2000.data',
(PID.TID 0000.0001)   94  PTRACERS_initialFile(14)=     '../input/input/loc1_pop_y2000.data',
(PID.TID 0000.0001)   95  PTRACERS_initialFile(15)=     '../input/input/loc1_posi_y2000.data',
(PID.TID 0000.0001)   96  PTRACERS_initialFile(16)=     '../input/input/loc1_pofe_y2000.data',
(PID.TID 0000.0001)   97  PTRACERS_initialFile(17)=     '../input/input/loc1_pic_y2000.data',
(PID.TID 0000.0001)   98  PTRACERS_initialFile(18)=     '../input/input/loc1_glodap_alk_ann-3d.bin',
(PID.TID 0000.0001)   99  PTRACERS_initialFile(19)=     '../input/input/loc1_lev01_oxygen_micromolar_ann-3d.bin',
(PID.TID 0000.0001)  100  PTRACERS_initialFile(20)=     '../input/input/loc1_phyp_x120_6species_y2000.data',
(PID.TID 0000.0001)  101  PTRACERS_initialFile(21)=     '../input/input/loc1_phyp_x120_6species_y2000.data',
(PID.TID 0000.0001)  102  PTRACERS_initialFile(22)=     '../input/input/loc1_phyp_x120_6species_y2000.data',
(PID.TID 0000.0001)  103  PTRACERS_initialFile(23)=     '../input/input/loc1_phyp_x120_6species_y2000.data',
(PID.TID 0000.0001)  104  PTRACERS_initialFile(24)=     '../input/input/loc1_phyp_x120_6species_y2000.data',
(PID.TID 0000.0001)  105  PTRACERS_initialFile(25)=     '../input/input/loc1_phyp_x120_6species_y2000.data',
(PID.TID 0000.0001)  106  PTRACERS_initialFile(26)=     '../input/input/loc1_zoop_x120_y2000.data',
(PID.TID 0000.0001)  107  PTRACERS_initialFile(27)=     '../input/input/loc1_zoop_x120_y2000.data',
(PID.TID 0000.0001)  108  PTRACERS_initialFile(28:31)=4*'../input/input/loc1_phyp_x16_6species_y2000.data',
(PID.TID 0000.0001)  109  PTRACERS_initialFile(32)=     '../input/input/loc1_phyp_x40_6species_y2000.data',
(PID.TID 0000.0001)  110  PTRACERS_initialFile(33)=     '../input/input/loc1_phyp_x16_6species_y2000.data',
(PID.TID 0000.0001)  111  PTRACERS_initialFile(34:35)=2*'../input/input/loc1_zoop_x16_y2000.data',
(PID.TID 0000.0001)  112  PTRACERS_initialFile(36:41)=6*'../input/input/loc1_phyp_6species_y2000.data',
(PID.TID 0000.0001)  113  PTRACERS_initialFile(42:43)=2*'../input/input/loc1_zoop_y2000.data',
(PID.TID 0000.0001)  114  PTRACERS_initialFile(44:49)=6*' ',
(PID.TID 0000.0001)  115  /
(PID.TID 0000.0001) // =======================================================
(PID.TID 0000.0001) // Parameter file "data.ptracers"
(PID.TID 0000.0001) // =======================================================
(PID.TID 0000.0001) > &PTRACERS_PARM01
(PID.TID 0000.0001) > PTRACERS_numInUse=49,
(PID.TID 0000.0001) > PTRACERS_Iter0= 0,
(PID.TID 0000.0001) >#
(PID.TID 0000.0001) > PTRACERS_advScheme=49*33,
(PID.TID 0000.0001) > PTRACERS_diffKh=49*0.E3,
(PID.TID 0000.0001) > PTRACERS_diffKr=49*1.E-5,
(PID.TID 0000.0001) > PTRACERS_useGMRedi=49*.FALSE.,
(PID.TID 0000.0001) > PTRACERS_useKPP=49*.TRUE.,
(PID.TID 0000.0001) >#
(PID.TID 0000.0001) > PTRACERS_names(1)= 'DIC',
(PID.TID 0000.0001) > PTRACERS_names(2)= 'NH4',
(PID.TID 0000.0001) > PTRACERS_names(3)= 'NO2',
(PID.TID 0000.0001) > PTRACERS_names(4)= 'NO3',
(PID.TID 0000.0001) > PTRACERS_names(5)= 'PO4',
(PID.TID 0000.0001) > PTRACERS_names(6)= 'SiO2',
(PID.TID 0000.0001) > PTRACERS_names(7)= 'FeT',
(PID.TID 0000.0001) > PTRACERS_names(8)= 'DOC',
(PID.TID 0000.0001) > PTRACERS_names(9)= 'DON',
(PID.TID 0000.0001) > PTRACERS_names(10)= 'DOP',
(PID.TID 0000.0001) > PTRACERS_names(11)= 'DOFe',
(PID.TID 0000.0001) > PTRACERS_names(12)= 'POC',
(PID.TID 0000.0001) > PTRACERS_names(13)= 'PON',
(PID.TID 0000.0001) > PTRACERS_names(14)= 'POP',
(PID.TID 0000.0001) > PTRACERS_names(15)= 'POSi',
(PID.TID 0000.0001) > PTRACERS_names(16)= 'POFe',
(PID.TID 0000.0001) > PTRACERS_names(17)= 'PIC',
(PID.TID 0000.0001) > PTRACERS_names(18)= 'ALK',
(PID.TID 0000.0001) > PTRACERS_names(19)= 'O2',
(PID.TID 0000.0001) > PTRACERS_names(20)= 'c1',
(PID.TID 0000.0001) > PTRACERS_names(21)= 'c2',
(PID.TID 0000.0001) > PTRACERS_names(22)= 'c3',
(PID.TID 0000.0001) > PTRACERS_names(23)= 'c4',
(PID.TID 0000.0001) > PTRACERS_names(24)= 'c5',
(PID.TID 0000.0001) > PTRACERS_names(25)= 'c6',
(PID.TID 0000.0001) > PTRACERS_names(26)= 'c7',
(PID.TID 0000.0001) > PTRACERS_names(27)= 'c8',
(PID.TID 0000.0001) > PTRACERS_names(28)= 'n1',
(PID.TID 0000.0001) > PTRACERS_names(29)= 'n2',
(PID.TID 0000.0001) > PTRACERS_names(30)= 'n3',
(PID.TID 0000.0001) > PTRACERS_names(31)= 'n4',
(PID.TID 0000.0001) > PTRACERS_names(32)= 'n5',
(PID.TID 0000.0001) > PTRACERS_names(33)= 'n6',
(PID.TID 0000.0001) > PTRACERS_names(34)= 'n7',
(PID.TID 0000.0001) > PTRACERS_names(35)= 'n8',
(PID.TID 0000.0001) > PTRACERS_names(36)= 'p1',
(PID.TID 0000.0001) > PTRACERS_names(37)= 'p2',
(PID.TID 0000.0001) > PTRACERS_names(38)= 'p3',
(PID.TID 0000.0001) > PTRACERS_names(39)= 'p4',
(PID.TID 0000.0001) > PTRACERS_names(40)= 'p5',
(PID.TID 0000.0001) > PTRACERS_names(41)= 'p6',
(PID.TID 0000.0001) > PTRACERS_names(42)= 'p7',
(PID.TID 0000.0001) > PTRACERS_names(43)= 'p8',
(PID.TID 0000.0001) > PTRACERS_names(44)= 'Chl1',
(PID.TID 0000.0001) > PTRACERS_names(45)= 'Chl2',
(PID.TID 0000.0001) > PTRACERS_names(46)= 'Chl3',
(PID.TID 0000.0001) > PTRACERS_names(47)= 'Chl4',
(PID.TID 0000.0001) > PTRACERS_names(48)= 'Chl5',
(PID.TID 0000.0001) > PTRACERS_names(49)= 'Chl6',
(PID.TID 0000.0001) > PTRACERS_units(1)='mmol C/m^3',
(PID.TID 0000.0001) > PTRACERS_units(2)='mmol N/m^3',
(PID.TID 0000.0001) > PTRACERS_units(3)='mmol N/m^3',
(PID.TID 0000.0001) > PTRACERS_units(4)='mmol N/m^3',
(PID.TID 0000.0001) > PTRACERS_units(5)='mmol P/m^3',
(PID.TID 0000.0001) > PTRACERS_units(6)='mmol Si/m^3',
(PID.TID 0000.0001) > PTRACERS_units(7)='mmol Fe/m^3',
(PID.TID 0000.0001) > PTRACERS_units(8)='mmol C/m^3',
(PID.TID 0000.0001) > PTRACERS_units(9)='mmol N/m^3',
(PID.TID 0000.0001) > PTRACERS_units(10)='mmol P/m^3',
(PID.TID 0000.0001) > PTRACERS_units(11)='mmol Fe/m^3',
(PID.TID 0000.0001) > PTRACERS_units(12)='mmol C/m^3',
(PID.TID 0000.0001) > PTRACERS_units(13)='mmol N/m^3',
(PID.TID 0000.0001) > PTRACERS_units(14)='mmol P/m^3',
(PID.TID 0000.0001) > PTRACERS_units(15)='mmol Si/m^3',
(PID.TID 0000.0001) > PTRACERS_units(16)='mmol Fe/m^3',
(PID.TID 0000.0001) > PTRACERS_units(17)='mmol C/m^3',
(PID.TID 0000.0001) > PTRACERS_units(18)='mmol eq/m^3',
(PID.TID 0000.0001) > PTRACERS_units(19)='mmol O/m^3',
(PID.TID 0000.0001) > PTRACERS_units(20:27)=8*'mmol C/m^3',
(PID.TID 0000.0001) > PTRACERS_units(28:35)=8*'mmol N/m^3',
(PID.TID 0000.0001) > PTRACERS_units(36:43)=8*'mmol P/m^3',
(PID.TID 0000.0001) > PTRACERS_units(44:49)=6*'mg/m^3',
(PID.TID 0000.0001) > PTRACERS_initialFile(1)=      '../input/input/loc1_glodap_tco2_ann-3d.bin',
(PID.TID 0000.0001) > PTRACERS_initialFile(2)=      '../input/input/loc1_nh4_y2000.data',
(PID.TID 0000.0001) > PTRACERS_initialFile(3)=      '../input/input/loc1_no2_y2000.data',
(PID.TID 0000.0001) > PTRACERS_initialFile(4)=      '../input/input/loc1_lev01_nitrate_ann-3d.bin',
(PID.TID 0000.0001) > PTRACERS_initialFile(5)=      '../input/input/loc1_lev01_phosphate_ann-3d.bin',
(PID.TID 0000.0001) > PTRACERS_initialFile(6)=      '../input/input/loc1_lev01_silicate_ann-3d.bin ',
(PID.TID 0000.0001) > PTRACERS_initialFile(7)=      '../input/input/loc1_fet_y2000.data',
(PID.TID 0000.0001) > PTRACERS_initialFile(8)=      '../input/input/loc1_doc_y2000.data',
(PID.TID 0000.0001) > PTRACERS_initialFile(9)=      '../input/input/loc1_don_y2000.data',
(PID.TID 0000.0001) > PTRACERS_initialFile(10)=     '../input/input/loc1_dop_y2000.data',
(PID.TID 0000.0001) > PTRACERS_initialFile(11)=     '../input/input/loc1_dofe_y2000.data',
(PID.TID 0000.0001) > PTRACERS_initialFile(12)=     '../input/input/loc1_poc_y2000.data',
(PID.TID 0000.0001) > PTRACERS_initialFile(13)=     '../input/input/loc1_pon_y2000.data',
(PID.TID 0000.0001) > PTRACERS_initialFile(14)=     '../input/input/loc1_pop_y2000.data',
(PID.TID 0000.0001) > PTRACERS_initialFile(15)=     '../input/input/loc1_posi_y2000.data',
(PID.TID 0000.0001) > PTRACERS_initialFile(16)=     '../input/input/loc1_pofe_y2000.data',
(PID.TID 0000.0001) > PTRACERS_initialFile(17)=     '../input/input/loc1_pic_y2000.data',
(PID.TID 0000.0001) > PTRACERS_initialFile(18)=     '../input/input/loc1_glodap_alk_ann-3d.bin',
(PID.TID 0000.0001) > PTRACERS_initialFile(19)=     '../input/input/loc1_lev01_oxygen_micromolar_ann-3d.bin',
(PID.TID 0000.0001) > PTRACERS_initialFile(20)=     '../input/input/loc1_phyp_x120_6species_y2000.data',
(PID.TID 0000.0001) > PTRACERS_initialFile(21)=     '../input/input/loc1_phyp_x120_6species_y2000.data',
(PID.TID 0000.0001) > PTRACERS_initialFile(22)=     '../input/input/loc1_phyp_x120_6species_y2000.data',
(PID.TID 0000.0001) > PTRACERS_initialFile(23)=     '../input/input/loc1_phyp_x120_6species_y2000.data',
(PID.TID 0000.0001) > PTRACERS_initialFile(24)=     '../input/input/loc1_phyp_x120_6species_y2000.data',
(PID.TID 0000.0001) > PTRACERS_initialFile(25)=     '../input/input/loc1_phyp_x120_6species_y2000.data',
(PID.TID 0000.0001) > PTRACERS_initialFile(26)=     '../input/input/loc1_zoop_x120_y2000.data',
(PID.TID 0000.0001) > PTRACERS_initialFile(27)=     '../input/input/loc1_zoop_x120_y2000.data',
(PID.TID 0000.0001) > PTRACERS_initialFile(28:31)=4*'../input/input/loc1_phyp_x16_6species_y2000.data',
(PID.TID 0000.0001) > PTRACERS_initialFile(32)=     '../input/input/loc1_phyp_x40_6species_y2000.data',
(PID.TID 0000.0001) > PTRACERS_initialFile(33)=     '../input/input/loc1_phyp_x16_6species_y2000.data',
(PID.TID 0000.0001) > PTRACERS_initialFile(34:35)=2*'../input/input/loc1_zoop_x16_y2000.data',
(PID.TID 0000.0001) > PTRACERS_initialFile(36:41)=6*'../input/input/loc1_phyp_6species_y2000.data',
(PID.TID 0000.0001) > PTRACERS_initialFile(42:43)=2*'../input/input/loc1_zoop_y2000.data',
(PID.TID 0000.0001) > PTRACERS_initialFile(44:49)=6*' ',
(PID.TID 0000.0001) > /
(PID.TID 0000.0001) 
(PID.TID 0000.0001)  PTRACERS_READPARMS: finished reading data.ptracers
(PID.TID 0000.0001)  GCHEM_READPARMS: opening data.gchem
(PID.TID 0000.0001)  OPEN_COPY_DATA_FILE: opening file data.gchem
(PID.TID 0000.0001) // =======================================================
(PID.TID 0000.0001) // Removing comments from "data.gchem"
(PID.TID 0000.0001) // =======================================================
(PID.TID 0000.0001)    1  &GCHEM_PARM01
(PID.TID 0000.0001)    2   useGUD=.TRUE.,
(PID.TID 0000.0001)    3   nsubtime=1,
(PID.TID 0000.0001)    4  /
(PID.TID 0000.0001) // =======================================================
(PID.TID 0000.0001) // Parameter file "data.gchem"
(PID.TID 0000.0001) // =======================================================
(PID.TID 0000.0001) > &GCHEM_PARM01
(PID.TID 0000.0001) >  useGUD=.TRUE.,
(PID.TID 0000.0001) >  nsubtime=1,
(PID.TID 0000.0001) > /
(PID.TID 0000.0001) 
(PID.TID 0000.0001)  GCHEM_READPARMS: finished reading data.gchem
(PID.TID 0000.0001)  GUD_READPARMS: opening data.gud
(PID.TID 0000.0001)  OPEN_COPY_DATA_FILE: opening file data.gud
(PID.TID 0000.0001) // =======================================================
(PID.TID 0000.0001) // Removing comments from "data.gud"
(PID.TID 0000.0001) // =======================================================
(PID.TID 0000.0001)    1  &GUD_FORCING_PARAMS
(PID.TID 0000.0001)    2  gud_chlInitBalanced= T,
(PID.TID 0000.0001)    3  ironFile='../input/input/loc1_mahowald2009_solubile_current_smooth_oce_mth-2d.bin',
(PID.TID 0000.0001)    4  PARFile='../input/input/loc1_ecco_oasim_total_below_oneband_einm2d.bin',
(PID.TID 0000.0001)    5  windFile='../input/input/loc1_tren_speed_mth-2d.bin',
(PID.TID 0000.0001)    6  ironPeriod= -12.,
(PID.TID 0000.0001)    7  PARPeriod= -12.,
(PID.TID 0000.0001)    8  windPeriod= -12.,
(PID.TID 0000.0001)    9  gud_inscal_iron= 1000.,
(PID.TID 0000.0001)   10  gud_inscal_PAR= 11.574074074074,
(PID.TID 0000.0001)   11  /
(PID.TID 0000.0001)   12  &GUD_PARAMS
(PID.TID 0000.0001)   13  diaz_ini_fac= 0.1,
(PID.TID 0000.0001)   14  gud_seed= 56,
(PID.TID 0000.0001)   15  gud_read_phos= F,
(PID.TID 0000.0001)   16  tempCoeffArr= 0.8,
(PID.TID 0000.0001)   17  PARmin= 1.0,
(PID.TID 0000.0001)   18  alpfe= 1.0,
(PID.TID 0000.0001)   19  freefemax = .1E-4,
(PID.TID 0000.0001)   20  depthfesed= 7000.,
(PID.TID 0000.0001)   21  scav_rat= 1.73611111111111111111E-7,
(PID.TID 0000.0001)   22  kdoc=  3.8580246913580247E-07,  ! 1/30day
(PID.TID 0000.0001)   23  kdop=  3.8580246913580247E-07,  ! 1/30day
(PID.TID 0000.0001)   24  kdon=  3.8580246913580247E-07,  ! 1/30day
(PID.TID 0000.0001)   25  kdofe= 3.8580246913580247E-07,  ! 1/30day
(PID.TID 0000.0001)   26  kPOC=  3.8580246913580247E-07,  ! 1/30day
(PID.TID 0000.0001)   27  kPOP=  3.8580246913580247E-07,  ! 1/30day
(PID.TID 0000.0001)   28  kPON=  3.8580246913580247E-07,  ! 1/30day
(PID.TID 0000.0001)   29  kPOFe= 3.8580246913580247E-07,  ! 1/30day
(PID.TID 0000.0001)   30  kPOSi= 7.7160493827160493E-08,  ! 1/150day
(PID.TID 0000.0001)   31  phygrazmin= 120E-10,
(PID.TID 0000.0001)   32  gud_atmos_pCO2= 278E-6,
(PID.TID 0000.0001)   33  inhib_graz_exp= 1.0,
(PID.TID 0000.0001)   34  /
(PID.TID 0000.0001)   35  &GUD_RADTRANS_PARAMS
(PID.TID 0000.0001)   36  /
(PID.TID 0000.0001)   37  &GUD_RANDOM_PARAMS
(PID.TID 0000.0001)   38  /
(PID.TID 0000.0001)   39  &GUD_TRAIT_PARAMS
(PID.TID 0000.0001)   40  grp_nplank(:)=          1, 1, 1, 1, 1, 1, 0, 2,
(PID.TID 0000.0001)   41  grp_photo(:)=           1, 1, 1, 1, 1, 1, 1, 0,
(PID.TID 0000.0001)   42  grp_pred(:)=            0, 0, 0, 0, 0, 0, 0, 1,
(PID.TID 0000.0001)   43  grp_prey(:)=            1, 1, 1, 1, 1, 1, 0, 0,
(PID.TID 0000.0001)   44  grp_hasSi(:)=           1, 0, 0, 0, 0, 0, 0, 0,
(PID.TID 0000.0001)   45  grp_hasPIC(:)=          0, 0, 0, 0, 0, 1, 0, 0,
(PID.TID 0000.0001)   46  grp_DIAZO(:)=           0, 0, 0, 0, 1, 0, 0, 0,
(PID.TID 0000.0001)   47  grp_useNH4(:)=          1, 1, 1, 1, 1, 1, 1, 0,
(PID.TID 0000.0001)   48  grp_useNO2(:)=          1, 1, 1, 1, 1, 1, 1, 0,
(PID.TID 0000.0001)   49  grp_useNO3(:)=          1, 1, 1, 1, 1, 1, 1, 0,
(PID.TID 0000.0001)   50  grp_combNO(:)=          1, 1, 1, 1, 1, 1, 1, 0,
(PID.TID 0000.0001)   51  grp_tempMort(:)=        1, 1, 1, 1, 1, 1, 1, 1,
(PID.TID 0000.0001)   52  grp_tempMort2(:)=       1, 1, 1, 1, 1, 1, 1, 1,
(PID.TID 0000.0001)   53  grp_Xmin(:)= 7*120E-20,
(PID.TID 0000.0001)   54  grp_mqyield(:)= 7*5E-5,
(PID.TID 0000.0001)   55  grp_chl2cmax(:)= 7*.3,
(PID.TID 0000.0001)   56  grp_acclimtimescl(:)= 7*5.7870370370370370E-6,
(PID.TID 0000.0001)   57  biovol0(:)= 441.0623631214372, 441.0623631214372, 0.3685530418524794, 0.11310973893337056,
(PID.TID 0000.0001)   58              441.0623631214372, 12.749700999437144, 0.11310973893337056,
(PID.TID 0000.0001)   59              1.2008810730146715,
(PID.TID 0000.0001)   60  biovolfac(:)= 7*3.2583670100200877, 3899.4198667654337
(PID.TID 0000.0001)   61  a_biosink(:)= 7*6.951416635391563E-7, 0.,  ! .05*dm**.85
(PID.TID 0000.0001)   62  b_biosink(:)= 7*.2833333333333333, 0.,
(PID.TID 0000.0001)   63  a_vmax_DIC(1)= 8.680555555555556E-5,   ! 7.5/day
(PID.TID 0000.0001)   64  a_vmax_DIC(2)= 2.3148148148148147E-5,  ! 2.0/day
(PID.TID 0000.0001)   65  a_vmax_DIC(3)= 6.944444444444444E-6,   ! 0.6/day
(PID.TID 0000.0001)   66  a_vmax_DIC(4)= 6.944444444444444E-6,   ! 0.6/day
(PID.TID 0000.0001)   67  a_vmax_DIC(5)= 1.0416666666666666E-5,  ! 0.9/day
(PID.TID 0000.0001)   68  a_vmax_DIC(6)= 3.472222222222222E-5,   ! 3.0/day
(PID.TID 0000.0001)   69  a_vmax_DIC(7)= 0.0,
(PID.TID 0000.0001)   70  b_vmax_DIC(:)= -0.15, -0.15, 0.07, 0.07, -0.15, -0.15, 0.07, 0.,
(PID.TID 0000.0001)   71  gud_effective_ksat= T,
(PID.TID 0000.0001)   72  a_vmax_NO3(:)= 7*5.902777777777778e-06,  ! 0.51/day
(PID.TID 0000.0001)   73  a_qmax_n(:)=   7*0.25,
(PID.TID 0000.0001)   74  a_qmin_n(:)=   7*0.07,
(PID.TID 0000.0001)   75  a_kn_NO3(:)=   7*0.17,
(PID.TID 0000.0001)   76  b_vmax_NO3(:)= 7*-0.27,
(PID.TID 0000.0001)   77  b_qmax_n(:)=   7*-0.13,
(PID.TID 0000.0001)   78  b_qmin_n(:)=   7*-0.17,
(PID.TID 0000.0001)   79  b_kn_NO3(:)=   7*0.27,
(PID.TID 0000.0001)   80  grp_ExportFrac(:)= .4, .4, .1, .1, .4, .4,
(PID.TID 0000.0001)   81  grp_ExportFracPreyPred(1:7,8)= 7*.8,
(PID.TID 0000.0001)   82  grp_R_ChlC(8)= 0.,
(PID.TID 0000.0001)   83  a_graz(8)= 2.3148148148148147e-05,  ! 2/day
(PID.TID 0000.0001)   84  b_graz(8)= -.16,
(PID.TID 0000.0001)   85  grp_mort(:)= 7*1.6534391534391533e-06, 2.3148148148148148e-07,  ! 1/7days, 1/50days
(PID.TID 0000.0001)   86  grp_mort2(:)= 7*0., 9.259259259259258e-07,  ! 16*.6/120/day
(PID.TID 0000.0001)   87  grp_tempcoeff2= 7*.0003,
(PID.TID 0000.0001)   88  grp_R_PC(:)= 8*0.008333333333333333,
(PID.TID 0000.0001)   89  grp_R_FeC(:)= 4*0.008333333333333333E-3, 0.03333333333333333E-3, 3*0.008333333333333333E-3,
(PID.TID 0000.0001)   90  grp_R_NC(:)= 4*0.13333333333333333, 0.3333333333333333, 3*0.13333333333333333,
(PID.TID 0000.0001)   91  grp_R_SiC(:)= 0.13333333333333333, 7*0.,
(PID.TID 0000.0001)   92  grp_R_PICPOC(:)= 5*0., .8, 2*0.,
(PID.TID 0000.0001)   93  a_kg(8)= 6.,
(PID.TID 0000.0001)   94  b_kg(8)= 0.,
(PID.TID 0000.0001)   95  /
(PID.TID 0000.0001) // =======================================================
(PID.TID 0000.0001) // Parameter file "data.gud"
(PID.TID 0000.0001) // =======================================================
(PID.TID 0000.0001) >########################
(PID.TID 0000.0001) > &GUD_FORCING_PARAMS
(PID.TID 0000.0001) > gud_chlInitBalanced= T,
(PID.TID 0000.0001) > ironFile='../input/input/loc1_mahowald2009_solubile_current_smooth_oce_mth-2d.bin',
(PID.TID 0000.0001) > PARFile='../input/input/loc1_ecco_oasim_total_below_oneband_einm2d.bin',
(PID.TID 0000.0001) > windFile='../input/input/loc1_tren_speed_mth-2d.bin',
(PID.TID 0000.0001) > ironPeriod= -12.,
(PID.TID 0000.0001) > PARPeriod= -12.,
(PID.TID 0000.0001) > windPeriod= -12.,
(PID.TID 0000.0001) > gud_inscal_iron= 1000.,
(PID.TID 0000.0001) > gud_inscal_PAR= 11.574074074074,
(PID.TID 0000.0001) > /
(PID.TID 0000.0001) >########################
(PID.TID 0000.0001) > &GUD_PARAMS
(PID.TID 0000.0001) > diaz_ini_fac= 0.1,
(PID.TID 0000.0001) > gud_seed= 56,
(PID.TID 0000.0001) > gud_read_phos= F,
(PID.TID 0000.0001) > tempCoeffArr= 0.8,
(PID.TID 0000.0001) > PARmin= 1.0,
(PID.TID 0000.0001) > alpfe= 1.0,
(PID.TID 0000.0001) > freefemax = .1E-4,
(PID.TID 0000.0001) > depthfesed= 7000.,
(PID.TID 0000.0001) > scav_rat= 1.73611111111111111111E-7,
(PID.TID 0000.0001) > kdoc=  3.8580246913580247E-07,  ! 1/30day
(PID.TID 0000.0001) > kdop=  3.8580246913580247E-07,  ! 1/30day
(PID.TID 0000.0001) > kdon=  3.8580246913580247E-07,  ! 1/30day
(PID.TID 0000.0001) > kdofe= 3.8580246913580247E-07,  ! 1/30day
(PID.TID 0000.0001) > kPOC=  3.8580246913580247E-07,  ! 1/30day
(PID.TID 0000.0001) > kPOP=  3.8580246913580247E-07,  ! 1/30day
(PID.TID 0000.0001) > kPON=  3.8580246913580247E-07,  ! 1/30day
(PID.TID 0000.0001) > kPOFe= 3.8580246913580247E-07,  ! 1/30day
(PID.TID 0000.0001) > kPOSi= 7.7160493827160493E-08,  ! 1/150day
(PID.TID 0000.0001) > phygrazmin= 120E-10,
(PID.TID 0000.0001) > gud_atmos_pCO2= 278E-6,
(PID.TID 0000.0001) > inhib_graz_exp= 1.0,
(PID.TID 0000.0001) > /
(PID.TID 0000.0001) >########################
(PID.TID 0000.0001) > &GUD_RADTRANS_PARAMS
(PID.TID 0000.0001) > /
(PID.TID 0000.0001) >########################
(PID.TID 0000.0001) > &GUD_RANDOM_PARAMS
(PID.TID 0000.0001) > /
(PID.TID 0000.0001) >########################
(PID.TID 0000.0001) > &GUD_TRAIT_PARAMS
(PID.TID 0000.0001) >#                        D  l  s  P  T  C  S  Z
(PID.TID 0000.0001) > grp_nplank(:)=          1, 1, 1, 1, 1, 1, 0, 2,
(PID.TID 0000.0001) > grp_photo(:)=           1, 1, 1, 1, 1, 1, 1, 0,
(PID.TID 0000.0001) > grp_pred(:)=            0, 0, 0, 0, 0, 0, 0, 1,
(PID.TID 0000.0001) > grp_prey(:)=            1, 1, 1, 1, 1, 1, 0, 0,
(PID.TID 0000.0001) > grp_hasSi(:)=           1, 0, 0, 0, 0, 0, 0, 0,
(PID.TID 0000.0001) > grp_hasPIC(:)=          0, 0, 0, 0, 0, 1, 0, 0,
(PID.TID 0000.0001) > grp_DIAZO(:)=           0, 0, 0, 0, 1, 0, 0, 0,
(PID.TID 0000.0001) > grp_useNH4(:)=          1, 1, 1, 1, 1, 1, 1, 0,
(PID.TID 0000.0001) > grp_useNO2(:)=          1, 1, 1, 1, 1, 1, 1, 0,
(PID.TID 0000.0001) > grp_useNO3(:)=          1, 1, 1, 1, 1, 1, 1, 0,
(PID.TID 0000.0001) > grp_combNO(:)=          1, 1, 1, 1, 1, 1, 1, 0,
(PID.TID 0000.0001) > grp_tempMort(:)=        1, 1, 1, 1, 1, 1, 1, 1,
(PID.TID 0000.0001) > grp_tempMort2(:)=       1, 1, 1, 1, 1, 1, 1, 1,
(PID.TID 0000.0001) > grp_Xmin(:)= 7*120E-20,
(PID.TID 0000.0001) > grp_mqyield(:)= 7*5E-5,
(PID.TID 0000.0001) > grp_chl2cmax(:)= 7*.3,
(PID.TID 0000.0001) > grp_acclimtimescl(:)= 7*5.7870370370370370E-6,
(PID.TID 0000.0001) > biovol0(:)= 441.0623631214372, 441.0623631214372, 0.3685530418524794, 0.11310973893337056,
(PID.TID 0000.0001) >             441.0623631214372, 12.749700999437144, 0.11310973893337056,
(PID.TID 0000.0001) >             1.2008810730146715,
(PID.TID 0000.0001) > biovolfac(:)= 7*3.2583670100200877, 3899.4198667654337
(PID.TID 0000.0001) > a_biosink(:)= 7*6.951416635391563E-7, 0.,  ! .05*dm**.85
(PID.TID 0000.0001) > b_biosink(:)= 7*.2833333333333333, 0.,
(PID.TID 0000.0001) > a_vmax_DIC(1)= 8.680555555555556E-5,   ! 7.5/day
(PID.TID 0000.0001) > a_vmax_DIC(2)= 2.3148148148148147E-5,  ! 2.0/day
(PID.TID 0000.0001) > a_vmax_DIC(3)= 6.944444444444444E-6,   ! 0.6/day
(PID.TID 0000.0001) > a_vmax_DIC(4)= 6.944444444444444E-6,   ! 0.6/day
(PID.TID 0000.0001) > a_vmax_DIC(5)= 1.0416666666666666E-5,  ! 0.9/day
(PID.TID 0000.0001) > a_vmax_DIC(6)= 3.472222222222222E-5,   ! 3.0/day
(PID.TID 0000.0001) > a_vmax_DIC(7)= 0.0,
(PID.TID 0000.0001) > b_vmax_DIC(:)= -0.15, -0.15, 0.07, 0.07, -0.15, -0.15, 0.07, 0.,
(PID.TID 0000.0001) >#
(PID.TID 0000.0001) > gud_effective_ksat= T,
(PID.TID 0000.0001) > a_vmax_NO3(:)= 7*5.902777777777778e-06,  ! 0.51/day
(PID.TID 0000.0001) > a_qmax_n(:)=   7*0.25,
(PID.TID 0000.0001) > a_qmin_n(:)=   7*0.07,
(PID.TID 0000.0001) > a_kn_NO3(:)=   7*0.17,
(PID.TID 0000.0001) > b_vmax_NO3(:)= 7*-0.27,
(PID.TID 0000.0001) > b_qmax_n(:)=   7*-0.13,
(PID.TID 0000.0001) > b_qmin_n(:)=   7*-0.17,
(PID.TID 0000.0001) > b_kn_NO3(:)=   7*0.27,
(PID.TID 0000.0001) >#
(PID.TID 0000.0001) > grp_ExportFrac(:)= .4, .4, .1, .1, .4, .4,
(PID.TID 0000.0001) > grp_ExportFracPreyPred(1:7,8)= 7*.8,
(PID.TID 0000.0001) > grp_R_ChlC(8)= 0.,
(PID.TID 0000.0001) > a_graz(8)= 2.3148148148148147e-05,  ! 2/day
(PID.TID 0000.0001) > b_graz(8)= -.16,
(PID.TID 0000.0001) >#
(PID.TID 0000.0001) > grp_mort(:)= 7*1.6534391534391533e-06, 2.3148148148148148e-07,  ! 1/7days, 1/50days
(PID.TID 0000.0001) > grp_mort2(:)= 7*0., 9.259259259259258e-07,  ! 16*.6/120/day
(PID.TID 0000.0001) > grp_tempcoeff2= 7*.0003,
(PID.TID 0000.0001) > grp_R_PC(:)= 8*0.008333333333333333,
(PID.TID 0000.0001) > grp_R_FeC(:)= 4*0.008333333333333333E-3, 0.03333333333333333E-3, 3*0.008333333333333333E-3,
(PID.TID 0000.0001) > grp_R_NC(:)= 4*0.13333333333333333, 0.3333333333333333, 3*0.13333333333333333,
(PID.TID 0000.0001) > grp_R_SiC(:)= 0.13333333333333333, 7*0.,
(PID.TID 0000.0001) > grp_R_PICPOC(:)= 5*0., .8, 2*0.,
(PID.TID 0000.0001) > a_kg(8)= 6.,
(PID.TID 0000.0001) > b_kg(8)= 0.,
(PID.TID 0000.0001) > /
(PID.TID 0000.0001) 
(PID.TID 0000.0001)  ===================================
(PID.TID 0000.0001)  DIAGNOSTICS_READPARMS: opening data.diagnostics
(PID.TID 0000.0001)  OPEN_COPY_DATA_FILE: opening file data.diagnostics
(PID.TID 0000.0001) // =======================================================
(PID.TID 0000.0001) // Removing comments from "data.diagnostics"
(PID.TID 0000.0001) // =======================================================
(PID.TID 0000.0001)    1  &diagnostics_list
(PID.TID 0000.0001)    2  filename(1)= 'gud',
(PID.TID 0000.0001)    3  frequency(1)= 3600.,
(PID.TID 0000.0001)    4  fields(1,1)= 'TRAC01  ',
(PID.TID 0000.0001)    5  fields(2,1)= 'TRAC02  ',
(PID.TID 0000.0001)    6  fields(3,1)= 'TRAC03  ',
(PID.TID 0000.0001)    7  fields(4,1)= 'TRAC04  ',
(PID.TID 0000.0001)    8  fields(5,1)= 'TRAC05  ',
(PID.TID 0000.0001)    9  fields(6,1)= 'TRAC06  ',
(PID.TID 0000.0001)   10  fields(7,1)= 'TRAC07  ',
(PID.TID 0000.0001)   11  fields(8,1)= 'TRAC08  ',
(PID.TID 0000.0001)   12  fields(9,1)= 'TRAC09  ',
(PID.TID 0000.0001)   13  fields(10,1)= 'TRAC10  ',
(PID.TID 0000.0001)   14  fields(11,1)= 'TRAC11  ',
(PID.TID 0000.0001)   15  fields(12,1)= 'TRAC12  ',
(PID.TID 0000.0001)   16  fields(13,1)= 'TRAC13  ',
(PID.TID 0000.0001)   17  fields(14,1)= 'TRAC14  ',
(PID.TID 0000.0001)   18  fields(15,1)= 'TRAC15  ',
(PID.TID 0000.0001)   19  fields(16,1)= 'TRAC16  ',
(PID.TID 0000.0001)   20  fields(17,1)= 'TRAC17  ',
(PID.TID 0000.0001)   21  fields(18,1)= 'TRAC18  ',
(PID.TID 0000.0001)   22  fields(19,1)= 'TRAC19  ',
(PID.TID 0000.0001)   23  fields(20,1)= 'TRAC20  ',
(PID.TID 0000.0001)   24  fields(21,1)= 'TRAC21  ',
(PID.TID 0000.0001)   25  fields(22,1)= 'TRAC22  ',
(PID.TID 0000.0001)   26  fields(23,1)= 'TRAC23  ',
(PID.TID 0000.0001)   27  fields(24,1)= 'TRAC24  ',
(PID.TID 0000.0001)   28  fields(25,1)= 'TRAC25  ',
(PID.TID 0000.0001)   29  fields(26,1)= 'TRAC26  ',
(PID.TID 0000.0001)   30  fields(27,1)= 'TRAC27  ',
(PID.TID 0000.0001)   31  fields(28,1)= 'TRAC28  ',
(PID.TID 0000.0001)   32  fields(29,1)= 'TRAC29  ',
(PID.TID 0000.0001)   33  fields(30,1)= 'TRAC30  ',
(PID.TID 0000.0001)   34  fields(31,1)= 'TRAC31  ',
(PID.TID 0000.0001)   35  fields(32,1)= 'TRAC32  ',
(PID.TID 0000.0001)   36  fields(33,1)= 'TRAC33  ',
(PID.TID 0000.0001)   37  fields(34,1)= 'TRAC34  ',
(PID.TID 0000.0001)   38  fields(35,1)= 'TRAC35  ',
(PID.TID 0000.0001)   39  fields(36,1)= 'TRAC36  ',
(PID.TID 0000.0001)   40  fields(37,1)= 'TRAC37  ',
(PID.TID 0000.0001)   41  fields(38,1)= 'TRAC38  ',
(PID.TID 0000.0001)   42  fields(39,1)= 'TRAC39  ',
(PID.TID 0000.0001)   43  fields(40,1)= 'TRAC40  ',
(PID.TID 0000.0001)   44  fields(41,1)= 'TRAC41  ',
(PID.TID 0000.0001)   45  fields(42,1)= 'TRAC42  ',
(PID.TID 0000.0001)   46  fields(43,1)= 'TRAC43  ',
(PID.TID 0000.0001)   47  fields(44,1)= 'TRAC44  ',
(PID.TID 0000.0001)   48  fields(45,1)= 'TRAC45  ',
(PID.TID 0000.0001)   49  fields(46,1)= 'TRAC46  ',
(PID.TID 0000.0001)   50  fields(47,1)= 'TRAC47  ',
(PID.TID 0000.0001)   51  fields(48,1)= 'TRAC48  ',
(PID.TID 0000.0001)   52  fields(49,1)= 'TRAC49  ',
(PID.TID 0000.0001)   53  fields(50,1)= 'PARF    ',
(PID.TID 0000.0001)   54  fields(51,1)= 'atten   ',
(PID.TID 0000.0001)   55  fields(52,1)= 'surfPAR ',
(PID.TID 0000.0001)   56  fields(53,1)= 'exfPAR  ',
(PID.TID 0000.0001)   57  /
(PID.TID 0000.0001)   58  &diag_statis_parms
(PID.TID 0000.0001)   59        diagst_mnc=.TRUE.,
(PID.TID 0000.0001)   60      stat_freq(1)= 3600.,
(PID.TID 0000.0001)   61     stat_phase(1)= 0.,
(PID.TID 0000.0001)   62  stat_fields(1,1)= 'PP      '
(PID.TID 0000.0001)   63  stat_fields(2,1)= 'Nfix    '
(PID.TID 0000.0001)   64  stat_fields(3,1)= 'Denit   '
(PID.TID 0000.0001)   65     stat_fname(1)= 'stats',
(PID.TID 0000.0001)   66  /
(PID.TID 0000.0001) // =======================================================
(PID.TID 0000.0001) // Parameter file "data.diagnostics"
(PID.TID 0000.0001) // =======================================================
(PID.TID 0000.0001) > &diagnostics_list
(PID.TID 0000.0001) > filename(1)= 'gud',
(PID.TID 0000.0001) > frequency(1)= 3600.,
(PID.TID 0000.0001) > fields(1,1)= 'TRAC01  ',
(PID.TID 0000.0001) > fields(2,1)= 'TRAC02  ',
(PID.TID 0000.0001) > fields(3,1)= 'TRAC03  ',
(PID.TID 0000.0001) > fields(4,1)= 'TRAC04  ',
(PID.TID 0000.0001) > fields(5,1)= 'TRAC05  ',
(PID.TID 0000.0001) > fields(6,1)= 'TRAC06  ',
(PID.TID 0000.0001) > fields(7,1)= 'TRAC07  ',
(PID.TID 0000.0001) > fields(8,1)= 'TRAC08  ',
(PID.TID 0000.0001) > fields(9,1)= 'TRAC09  ',
(PID.TID 0000.0001) > fields(10,1)= 'TRAC10  ',
(PID.TID 0000.0001) > fields(11,1)= 'TRAC11  ',
(PID.TID 0000.0001) > fields(12,1)= 'TRAC12  ',
(PID.TID 0000.0001) > fields(13,1)= 'TRAC13  ',
(PID.TID 0000.0001) > fields(14,1)= 'TRAC14  ',
(PID.TID 0000.0001) > fields(15,1)= 'TRAC15  ',
(PID.TID 0000.0001) > fields(16,1)= 'TRAC16  ',
(PID.TID 0000.0001) > fields(17,1)= 'TRAC17  ',
(PID.TID 0000.0001) > fields(18,1)= 'TRAC18  ',
(PID.TID 0000.0001) > fields(19,1)= 'TRAC19  ',
(PID.TID 0000.0001) > fields(20,1)= 'TRAC20  ',
(PID.TID 0000.0001) > fields(21,1)= 'TRAC21  ',
(PID.TID 0000.0001) > fields(22,1)= 'TRAC22  ',
(PID.TID 0000.0001) > fields(23,1)= 'TRAC23  ',
(PID.TID 0000.0001) > fields(24,1)= 'TRAC24  ',
(PID.TID 0000.0001) > fields(25,1)= 'TRAC25  ',
(PID.TID 0000.0001) > fields(26,1)= 'TRAC26  ',
(PID.TID 0000.0001) > fields(27,1)= 'TRAC27  ',
(PID.TID 0000.0001) > fields(28,1)= 'TRAC28  ',
(PID.TID 0000.0001) > fields(29,1)= 'TRAC29  ',
(PID.TID 0000.0001) > fields(30,1)= 'TRAC30  ',
(PID.TID 0000.0001) > fields(31,1)= 'TRAC31  ',
(PID.TID 0000.0001) > fields(32,1)= 'TRAC32  ',
(PID.TID 0000.0001) > fields(33,1)= 'TRAC33  ',
(PID.TID 0000.0001) > fields(34,1)= 'TRAC34  ',
(PID.TID 0000.0001) > fields(35,1)= 'TRAC35  ',
(PID.TID 0000.0001) > fields(36,1)= 'TRAC36  ',
(PID.TID 0000.0001) > fields(37,1)= 'TRAC37  ',
(PID.TID 0000.0001) > fields(38,1)= 'TRAC38  ',
(PID.TID 0000.0001) > fields(39,1)= 'TRAC39  ',
(PID.TID 0000.0001) > fields(40,1)= 'TRAC40  ',
(PID.TID 0000.0001) > fields(41,1)= 'TRAC41  ',
(PID.TID 0000.0001) > fields(42,1)= 'TRAC42  ',
(PID.TID 0000.0001) > fields(43,1)= 'TRAC43  ',
(PID.TID 0000.0001) > fields(44,1)= 'TRAC44  ',
(PID.TID 0000.0001) > fields(45,1)= 'TRAC45  ',
(PID.TID 0000.0001) > fields(46,1)= 'TRAC46  ',
(PID.TID 0000.0001) > fields(47,1)= 'TRAC47  ',
(PID.TID 0000.0001) > fields(48,1)= 'TRAC48  ',
(PID.TID 0000.0001) > fields(49,1)= 'TRAC49  ',
(PID.TID 0000.0001) > fields(50,1)= 'PARF    ',
(PID.TID 0000.0001) > fields(51,1)= 'atten   ',
(PID.TID 0000.0001) > fields(52,1)= 'surfPAR ',
(PID.TID 0000.0001) > fields(53,1)= 'exfPAR  ',
(PID.TID 0000.0001) > /
(PID.TID 0000.0001) > &diag_statis_parms
(PID.TID 0000.0001) >       diagst_mnc=.TRUE.,
(PID.TID 0000.0001) >     stat_freq(1)= 3600.,
(PID.TID 0000.0001) >    stat_phase(1)= 0.,
(PID.TID 0000.0001) > stat_fields(1,1)= 'PP      '
(PID.TID 0000.0001) > stat_fields(2,1)= 'Nfix    '
(PID.TID 0000.0001) > stat_fields(3,1)= 'Denit   '
(PID.TID 0000.0001) >    stat_fname(1)= 'stats',
(PID.TID 0000.0001) > /
(PID.TID 0000.0001) 
(PID.TID 0000.0001) S/R DIAGNOSTICS_READPARMS, read namelist "diagnostics_list": start
(PID.TID 0000.0001) S/R DIAGNOSTICS_READPARMS, read namelist "diagnostics_list": OK
(PID.TID 0000.0001) S/R DIAGNOSTICS_READPARMS, read namelist "DIAG_STATIS_PARMS": start
(PID.TID 0000.0001) S/R DIAGNOSTICS_READPARMS, read namelist "DIAG_STATIS_PARMS": OK
(PID.TID 0000.0001)  DIAGNOSTICS_READPARMS: global parameter summary:
(PID.TID 0000.0001)  dumpAtLast = /* always write time-ave diags at the end */
(PID.TID 0000.0001)                   F
(PID.TID 0000.0001)     ;
(PID.TID 0000.0001)  diag_mnc =   /* write NetCDF output files */
(PID.TID 0000.0001)                   T
(PID.TID 0000.0001)     ;
(PID.TID 0000.0001)  useMissingValue = /* put MissingValue where mask = 0 */
(PID.TID 0000.0001)                   F
(PID.TID 0000.0001)     ;
(PID.TID 0000.0001)  diagCG_maxIters = /* max number of iters in diag_cg2d */
(PID.TID 0000.0001)                     300
(PID.TID 0000.0001)     ;
(PID.TID 0000.0001)  diagCG_resTarget = /* residual target for diag_cg2d */
(PID.TID 0000.0001)                 1.000000000000000E-07
(PID.TID 0000.0001)     ;
(PID.TID 0000.0001)  diagCG_pcOffDFac = /* preconditioner off-diagonal factor */
(PID.TID 0000.0001)                 9.611687812379854E-01
(PID.TID 0000.0001)     ;
(PID.TID 0000.0001) -----------------------------------------------------
(PID.TID 0000.0001)  DIAGNOSTICS_READPARMS: active diagnostics summary:
(PID.TID 0000.0001) -----------------------------------------------------
(PID.TID 0000.0001) Creating Output Stream: gud
(PID.TID 0000.0001) Output Frequency:       3600.000000 ; Phase:           0.000000
(PID.TID 0000.0001)  Averaging Freq.:       3600.000000 , Phase:           0.000000 , Cycle:   1
(PID.TID 0000.0001)  missing value: -9.990000000000E+02
(PID.TID 0000.0001)  Levels:    will be set later
(PID.TID 0000.0001)  Fields:    TRAC01   TRAC02   TRAC03   TRAC04   TRAC05   TRAC06   TRAC07   TRAC08   TRAC09   TRAC10
(PID.TID 0000.0001)  Fields:    TRAC11   TRAC12   TRAC13   TRAC14   TRAC15   TRAC16   TRAC17   TRAC18   TRAC19   TRAC20
(PID.TID 0000.0001)  Fields:    TRAC21   TRAC22   TRAC23   TRAC24   TRAC25   TRAC26   TRAC27   TRAC28   TRAC29   TRAC30
(PID.TID 0000.0001)  Fields:    TRAC31   TRAC32   TRAC33   TRAC34   TRAC35   TRAC36   TRAC37   TRAC38   TRAC39   TRAC40
(PID.TID 0000.0001)  Fields:    TRAC41   TRAC42   TRAC43   TRAC44   TRAC45   TRAC46   TRAC47   TRAC48   TRAC49   PARF
(PID.TID 0000.0001)  Fields:    atten    surfPAR  exfPAR
(PID.TID 0000.0001) -----------------------------------------------------
(PID.TID 0000.0001)  DIAGNOSTICS_READPARMS: statistics diags. summary:
(PID.TID 0000.0001) Creating Stats. Output Stream: stats
(PID.TID 0000.0001) Output Frequency:       3600.000000 ; Phase:           0.000000
(PID.TID 0000.0001)  Regions:   0
(PID.TID 0000.0001)  Fields:    PP       Nfix     Denit
(PID.TID 0000.0001) -----------------------------------------------------
(PID.TID 0000.0001) 
(PID.TID 0000.0001) SET_PARMS: done
(PID.TID 0000.0001) Enter INI_VERTICAL_GRID: setInterFDr=    T ; setCenterDr=    F
(PID.TID 0000.0001) %MON XC_max                       =   5.0000000000000000E-01
(PID.TID 0000.0001) %MON XC_min                       =   5.0000000000000000E-01
(PID.TID 0000.0001) %MON XC_mean                      =   5.0000000000000000E-01
(PID.TID 0000.0001) %MON XC_sd                        =   0.0000000000000000E+00
(PID.TID 0000.0001) %MON XG_max                       =   0.0000000000000000E+00
(PID.TID 0000.0001) %MON XG_min                       =   0.0000000000000000E+00
(PID.TID 0000.0001) %MON XG_mean                      =   0.0000000000000000E+00
(PID.TID 0000.0001) %MON XG_sd                        =   0.0000000000000000E+00
(PID.TID 0000.0001) %MON DXC_max                      =   7.9297382804168723E+04
(PID.TID 0000.0001) %MON DXC_min                      =   7.9297382804168723E+04
(PID.TID 0000.0001) %MON DXC_mean                     =   7.9297382804168723E+04
(PID.TID 0000.0001) %MON DXC_sd                       =   0.0000000000000000E+00
(PID.TID 0000.0001) %MON DXF_max                      =   7.9297382804168723E+04
(PID.TID 0000.0001) %MON DXF_min                      =   7.9297382804168723E+04
(PID.TID 0000.0001) %MON DXF_mean                     =   7.9297382804168723E+04
(PID.TID 0000.0001) %MON DXF_sd                       =   0.0000000000000000E+00
(PID.TID 0000.0001) %MON DXG_max                      =   7.8614345322413312E+04
(PID.TID 0000.0001) %MON DXG_min                      =   7.8614345322413312E+04
(PID.TID 0000.0001) %MON DXG_mean                     =   7.8614345322413312E+04
(PID.TID 0000.0001) %MON DXG_sd                       =   0.0000000000000000E+00
(PID.TID 0000.0001) %MON DXV_max                      =   7.8614345322413312E+04
(PID.TID 0000.0001) %MON DXV_min                      =   7.8614345322413312E+04
(PID.TID 0000.0001) %MON DXV_mean                     =   7.8614345322413312E+04
(PID.TID 0000.0001) %MON DXV_sd                       =   0.0000000000000000E+00
(PID.TID 0000.0001) %MON YC_max                       =  -4.4500000000000000E+01
(PID.TID 0000.0001) %MON YC_min                       =  -4.4500000000000000E+01
(PID.TID 0000.0001) %MON YC_mean                      =  -4.4500000000000000E+01
(PID.TID 0000.0001) %MON YC_sd                        =   0.0000000000000000E+00
(PID.TID 0000.0001) %MON YG_max                       =  -4.5000000000000000E+01
(PID.TID 0000.0001) %MON YG_min                       =  -4.5000000000000000E+01
(PID.TID 0000.0001) %MON YG_mean                      =  -4.5000000000000000E+01
(PID.TID 0000.0001) %MON YG_sd                        =   0.0000000000000000E+00
(PID.TID 0000.0001) %MON DYC_max                      =   1.1117747335203880E+05
(PID.TID 0000.0001) %MON DYC_min                      =   1.1117747335203880E+05
(PID.TID 0000.0001) %MON DYC_mean                     =   1.1117747335203880E+05
(PID.TID 0000.0001) %MON DYC_sd                       =   0.0000000000000000E+00
(PID.TID 0000.0001) %MON DYF_max                      =   1.1117747335203880E+05
(PID.TID 0000.0001) %MON DYF_min                      =   1.1117747335203880E+05
(PID.TID 0000.0001) %MON DYF_mean                     =   1.1117747335203880E+05
(PID.TID 0000.0001) %MON DYF_sd                       =   0.0000000000000000E+00
(PID.TID 0000.0001) %MON DYG_max                      =   1.1117747335203880E+05
(PID.TID 0000.0001) %MON DYG_min                      =   1.1117747335203880E+05
(PID.TID 0000.0001) %MON DYG_mean                     =   1.1117747335203880E+05
(PID.TID 0000.0001) %MON DYG_sd                       =   0.0000000000000000E+00
(PID.TID 0000.0001) %MON DYU_max                      =   1.1117747335203880E+05
(PID.TID 0000.0001) %MON DYU_min                      =   1.1117747335203880E+05
(PID.TID 0000.0001) %MON DYU_mean                     =   1.1117747335203880E+05
(PID.TID 0000.0001) %MON DYU_sd                       =   0.0000000000000000E+00
(PID.TID 0000.0001) %MON RA_max                       =   8.8159707668415375E+09
(PID.TID 0000.0001) %MON RA_min                       =   8.8159707668415375E+09
(PID.TID 0000.0001) %MON RA_mean                      =   8.8159707668415375E+09
(PID.TID 0000.0001) %MON RA_sd                        =   0.0000000000000000E+00
(PID.TID 0000.0001) %MON RAW_max                      =   8.8159707668415375E+09
(PID.TID 0000.0001) %MON RAW_min                      =   8.8159707668415375E+09
(PID.TID 0000.0001) %MON RAW_mean                     =   8.8159707668415375E+09
(PID.TID 0000.0001) %MON RAW_sd                       =   0.0000000000000000E+00
(PID.TID 0000.0001) %MON RAS_max                      =   8.7400333492513199E+09
(PID.TID 0000.0001) %MON RAS_min                      =   8.7400333492513199E+09
(PID.TID 0000.0001) %MON RAS_mean                     =   8.7400333492513199E+09
(PID.TID 0000.0001) %MON RAS_sd                       =   0.0000000000000000E+00
(PID.TID 0000.0001) %MON RAZ_max                      =   8.7400333492513199E+09
(PID.TID 0000.0001) %MON RAZ_min                      =   8.7400333492513199E+09
(PID.TID 0000.0001) %MON RAZ_mean                     =   8.7400333492513199E+09
(PID.TID 0000.0001) %MON RAZ_sd                       =   0.0000000000000000E+00
(PID.TID 0000.0001) %MON AngleCS_max                  =   1.0000000000000000E+00
(PID.TID 0000.0001) %MON AngleCS_min                  =   1.0000000000000000E+00
(PID.TID 0000.0001) %MON AngleCS_mean                 =   1.0000000000000000E+00
(PID.TID 0000.0001) %MON AngleCS_sd                   =   0.0000000000000000E+00
(PID.TID 0000.0001) %MON AngleSN_max                  =   0.0000000000000000E+00
(PID.TID 0000.0001) %MON AngleSN_min                  =   0.0000000000000000E+00
(PID.TID 0000.0001) %MON AngleSN_mean                 =   0.0000000000000000E+00
(PID.TID 0000.0001) %MON AngleSN_sd                   =   0.0000000000000000E+00
(PID.TID 0000.0001)  MDS_READ_FIELD: opening global file: ../input/input/bathyneg.bin
(PID.TID 0000.0001) // =======================================================
(PID.TID 0000.0001) // Field Model R_low (ini_masks_etc)
(PID.TID 0000.0001) // CMIN =         -3.495000000000000E+03
(PID.TID 0000.0001) // CMAX =         -3.495000000000000E+03
(PID.TID 0000.0001) // CINT =          0.000000000000000E+00
(PID.TID 0000.0001) // SYMBOLS (CMIN->CMAX): -abcdefghijklmnopqrstuvwxyz+
(PID.TID 0000.0001) //                  0.0: .
(PID.TID 0000.0001) // RANGE I (Lo:Hi:Step):(    -1:     3:     1)
(PID.TID 0000.0001) // RANGE J (Lo:Hi:Step):(     3:    -1:    -1)
(PID.TID 0000.0001) // RANGE K (Lo:Hi:Step):(   1:   1:   1)
(PID.TID 0000.0001) // =======================================================
(PID.TID 0000.0001) // =======================================================
(PID.TID 0000.0001) // END OF FIELD                                          =
(PID.TID 0000.0001) // =======================================================
(PID.TID 0000.0001) 
(PID.TID 0000.0001) // =======================================================
(PID.TID 0000.0001) // Field Model Ro_surf (ini_masks_etc)
(PID.TID 0000.0001) // CMIN =          1.000000000000000E+32
(PID.TID 0000.0001) // CMAX =         -1.000000000000000E+32
(PID.TID 0000.0001) // CINT =          0.000000000000000E+00
(PID.TID 0000.0001) // SYMBOLS (CMIN->CMAX): -abcdefghijklmnopqrstuvwxyz+
(PID.TID 0000.0001) //                  0.0: .
(PID.TID 0000.0001) // RANGE I (Lo:Hi:Step):(    -1:     3:     1)
(PID.TID 0000.0001) // RANGE J (Lo:Hi:Step):(     3:    -1:    -1)
(PID.TID 0000.0001) // RANGE K (Lo:Hi:Step):(   1:   1:   1)
(PID.TID 0000.0001) // =======================================================
(PID.TID 0000.0001) // =======================================================
(PID.TID 0000.0001) // END OF FIELD                                          =
(PID.TID 0000.0001) // =======================================================
(PID.TID 0000.0001) 
(PID.TID 0000.0001) // =======================================================
(PID.TID 0000.0001) // Field hFacC at iteration          0
(PID.TID 0000.0001) // CMIN =          1.000000000000000E+00
(PID.TID 0000.0001) // CMAX =          1.000000000000000E+00
(PID.TID 0000.0001) // CINT =          0.000000000000000E+00
(PID.TID 0000.0001) // SYMBOLS (CMIN->CMAX): -abcdefghijklmnopqrstuvwxyz+
(PID.TID 0000.0001) //                  0.0: .
(PID.TID 0000.0001) // RANGE I (Lo:Hi:Step):(    -1:     3:     1)
(PID.TID 0000.0001) // RANGE J (Lo:Hi:Step):(     3:    -1:    -1)
(PID.TID 0000.0001) // RANGE K (Lo:Hi:Step):(   1:   1:   1)
(PID.TID 0000.0001) // =======================================================
(PID.TID 0000.0001) // =======================================================
(PID.TID 0000.0001) // END OF FIELD                                          =
(PID.TID 0000.0001) // =======================================================
(PID.TID 0000.0001) 
(PID.TID 0000.0001) // =======================================================
(PID.TID 0000.0001) // Field hFacW at iteration          0
(PID.TID 0000.0001) // CMIN =          1.000000000000000E+00
(PID.TID 0000.0001) // CMAX =          1.000000000000000E+00
(PID.TID 0000.0001) // CINT =          0.000000000000000E+00
(PID.TID 0000.0001) // SYMBOLS (CMIN->CMAX): -abcdefghijklmnopqrstuvwxyz+
(PID.TID 0000.0001) //                  0.0: .
(PID.TID 0000.0001) // RANGE I (Lo:Hi:Step):(    -1:     3:     1)
(PID.TID 0000.0001) // RANGE J (Lo:Hi:Step):(     3:    -1:    -1)
(PID.TID 0000.0001) // RANGE K (Lo:Hi:Step):(   1:   1:   1)
(PID.TID 0000.0001) // =======================================================
(PID.TID 0000.0001) // =======================================================
(PID.TID 0000.0001) // END OF FIELD                                          =
(PID.TID 0000.0001) // =======================================================
(PID.TID 0000.0001) 
(PID.TID 0000.0001) // =======================================================
(PID.TID 0000.0001) // Field hFacS at iteration          0
(PID.TID 0000.0001) // CMIN =          1.000000000000000E+00
(PID.TID 0000.0001) // CMAX =          1.000000000000000E+00
(PID.TID 0000.0001) // CINT =          0.000000000000000E+00
(PID.TID 0000.0001) // SYMBOLS (CMIN->CMAX): -abcdefghijklmnopqrstuvwxyz+
(PID.TID 0000.0001) //                  0.0: .
(PID.TID 0000.0001) // RANGE I (Lo:Hi:Step):(    -1:     3:     1)
(PID.TID 0000.0001) // RANGE J (Lo:Hi:Step):(     3:    -1:    -1)
(PID.TID 0000.0001) // RANGE K (Lo:Hi:Step):(   1:   1:   1)
(PID.TID 0000.0001) // =======================================================
(PID.TID 0000.0001) // =======================================================
(PID.TID 0000.0001) // END OF FIELD                                          =
(PID.TID 0000.0001) // =======================================================
(PID.TID 0000.0001) 
(PID.TID 0000.0001) 
(PID.TID 0000.0001) // =======================================================
(PID.TID 0000.0001) // Calendar configuration >>> START <<<
(PID.TID 0000.0001) // =======================================================
(PID.TID 0000.0001) 
(PID.TID 0000.0001) modelstart = /* Start time of the model integration [s] */
(PID.TID 0000.0001)                 0.000000000000000E+00
(PID.TID 0000.0001)     ;
(PID.TID 0000.0001) modelend  = /* End time of the model integration [s] */
(PID.TID 0000.0001)                 1.440000000000000E+04
(PID.TID 0000.0001)     ;
(PID.TID 0000.0001) modelStep = /* Time interval for a model forward step [s] */
(PID.TID 0000.0001)                 3.600000000000000E+03
(PID.TID 0000.0001)     ;
(PID.TID 0000.0001) usingGregorianCalendar= /* Calendar Type: Gregorian Calendar */
(PID.TID 0000.0001)                   F
(PID.TID 0000.0001)     ;
(PID.TID 0000.0001) usingJulianCalendar = /* Calendar Type: Julian Calendar */
(PID.TID 0000.0001)                   F
(PID.TID 0000.0001)     ;
(PID.TID 0000.0001) usingNoLeapYearCal  = /* Calendar Type: without Leap Year */
(PID.TID 0000.0001)                   F
(PID.TID 0000.0001)     ;
(PID.TID 0000.0001) usingModelCalendar  = /* Calendar Type: Model Calendar */
(PID.TID 0000.0001)                   T
(PID.TID 0000.0001)     ;
(PID.TID 0000.0001) modelStartDate YYYYMMDD = /* Model start date YYYY-MM-DD */
(PID.TID 0000.0001)                19920101
(PID.TID 0000.0001)     ;
(PID.TID 0000.0001)   modelStartDate HHMMSS = /* Model start date HH-MM-SS  */
(PID.TID 0000.0001)                       0
(PID.TID 0000.0001)     ;
(PID.TID 0000.0001) modelEndDate   YYYYMMDD = /* Model end date YYYY-MM-DD */
(PID.TID 0000.0001)                19920101
(PID.TID 0000.0001)     ;
(PID.TID 0000.0001)   modelEndDate   HHMMSS = /* Model end date HH-MM-SS  */
(PID.TID 0000.0001)                   40000
(PID.TID 0000.0001)     ;
(PID.TID 0000.0001) intyears = /* Number of calendar years affected by the integration */
(PID.TID 0000.0001)                       1
(PID.TID 0000.0001)     ;
(PID.TID 0000.0001) intmonths= /* Number of calendar months affected by the integration */
(PID.TID 0000.0001)                       1
(PID.TID 0000.0001)     ;
(PID.TID 0000.0001) intdays = /* Number of calendar days affected by the integration */
(PID.TID 0000.0001)                       1
(PID.TID 0000.0001)     ;
(PID.TID 0000.0001) modelIter0 = /* Base timestep number  */
(PID.TID 0000.0001)                       0
(PID.TID 0000.0001)     ;
(PID.TID 0000.0001) modelIterEnd = /* Final timestep number  */
(PID.TID 0000.0001)                       4
(PID.TID 0000.0001)     ;
(PID.TID 0000.0001) modelIntSteps= /* Number of model timesteps  */
(PID.TID 0000.0001)                       4
(PID.TID 0000.0001)     ;
(PID.TID 0000.0001) 
(PID.TID 0000.0001) // =======================================================
(PID.TID 0000.0001) // Calendar configuration  >>> END <<<
(PID.TID 0000.0001) // =======================================================
(PID.TID 0000.0001) 
(PID.TID 0000.0001) GAD_INIT_FIXED: GAD_OlMinSize=  2  0  1
(PID.TID 0000.0001) 
(PID.TID 0000.0001) // ===================================
(PID.TID 0000.0001) // GAD parameters :
(PID.TID 0000.0001) // ===================================
(PID.TID 0000.0001) tempAdvScheme =   /* Temp. Horiz.Advection scheme selector */
(PID.TID 0000.0001)                       3
(PID.TID 0000.0001)     ;
(PID.TID 0000.0001) tempVertAdvScheme =   /* Temp. Vert. Advection scheme selector */
(PID.TID 0000.0001)                       3
(PID.TID 0000.0001)     ;
(PID.TID 0000.0001) tempMultiDimAdvec =   /* use Muti-Dim Advec method for Temp */
(PID.TID 0000.0001)                   F
(PID.TID 0000.0001)     ;
(PID.TID 0000.0001) tempSOM_Advection = /* use 2nd Order Moment Advection for Temp */
(PID.TID 0000.0001)                   F
(PID.TID 0000.0001)     ;
(PID.TID 0000.0001) AdamsBashforthGt = /* apply Adams-Bashforth extrapolation on Gt */
(PID.TID 0000.0001)                   T
(PID.TID 0000.0001)     ;
(PID.TID 0000.0001) AdamsBashforth_T = /* apply Adams-Bashforth extrapolation on Temp */
(PID.TID 0000.0001)                   F
(PID.TID 0000.0001)     ;
(PID.TID 0000.0001) saltAdvScheme =   /* Salt. Horiz.advection scheme selector */
(PID.TID 0000.0001)                       3
(PID.TID 0000.0001)     ;
(PID.TID 0000.0001) saltVertAdvScheme =   /* Salt. Vert. Advection scheme selector */
(PID.TID 0000.0001)                       3
(PID.TID 0000.0001)     ;
(PID.TID 0000.0001) saltMultiDimAdvec =   /* use Muti-Dim Advec method for Salt */
(PID.TID 0000.0001)                   F
(PID.TID 0000.0001)     ;
(PID.TID 0000.0001) saltSOM_Advection = /* use 2nd Order Moment Advection for Salt */
(PID.TID 0000.0001)                   F
(PID.TID 0000.0001)     ;
(PID.TID 0000.0001) AdamsBashforthGs = /* apply Adams-Bashforth extrapolation on Gs */
(PID.TID 0000.0001)                   F
(PID.TID 0000.0001)     ;
(PID.TID 0000.0001) AdamsBashforth_S = /* apply Adams-Bashforth extrapolation on Salt */
(PID.TID 0000.0001)                   F
(PID.TID 0000.0001)     ;
(PID.TID 0000.0001) // ===================================
(PID.TID 0000.0001) 
(PID.TID 0000.0001) // =======================================================
(PID.TID 0000.0001) // External forcing (EXF) configuration >>> START <<<
(PID.TID 0000.0001) // =======================================================
(PID.TID 0000.0001) 
(PID.TID 0000.0001)  EXF general parameters:
(PID.TID 0000.0001) 
(PID.TID 0000.0001) exf_iprec = /* exf file precision */
(PID.TID 0000.0001)                      64
(PID.TID 0000.0001)     ;
(PID.TID 0000.0001) useExfYearlyFields = /* add extension _YEAR to input file names */
(PID.TID 0000.0001)                   T
(PID.TID 0000.0001)     ;
(PID.TID 0000.0001) twoDigitYear = /* use 2-digit year extension */
(PID.TID 0000.0001)                   T
(PID.TID 0000.0001)     ;
[...]
 Computing Diagnostic #    258  TRAC08       Counter:       1   Parms: SMR     MR      
 Computing Diagnostic #    272  TRAC09       Counter:       1   Parms: SMR     MR      
 Computing Diagnostic #    286  TRAC10       Counter:       1   Parms: SMR     MR      
 Computing Diagnostic #    300  TRAC11       Counter:       1   Parms: SMR     MR      
 Computing Diagnostic #    314  TRAC12       Counter:       1   Parms: SMR     MR      
 Computing Diagnostic #    328  TRAC13       Counter:       1   Parms: SMR     MR      
 Computing Diagnostic #    342  TRAC14       Counter:       1   Parms: SMR     MR      
 Computing Diagnostic #    356  TRAC15       Counter:       1   Parms: SMR     MR      
 Computing Diagnostic #    370  TRAC16       Counter:       1   Parms: SMR     MR      
 Computing Diagnostic #    384  TRAC17       Counter:       1   Parms: SMR     MR      
 Computing Diagnostic #    398  TRAC18       Counter:       1   Parms: SMR     MR      
 Computing Diagnostic #    412  TRAC19       Counter:       1   Parms: SMR     MR      
 Computing Diagnostic #    426  TRAC20       Counter:       1   Parms: SMR     MR      
 Computing Diagnostic #    440  TRAC21       Counter:       1   Parms: SMR     MR      
 Computing Diagnostic #    454  TRAC22       Counter:       1   Parms: SMR     MR      
 Computing Diagnostic #    468  TRAC23       Counter:       1   Parms: SMR     MR      
 Computing Diagnostic #    482  TRAC24       Counter:       1   Parms: SMR     MR      
 Computing Diagnostic #    496  TRAC25       Counter:       1   Parms: SMR     MR      
 Computing Diagnostic #    510  TRAC26       Counter:       1   Parms: SMR     MR      
 Computing Diagnostic #    524  TRAC27       Counter:       1   Parms: SMR     MR      
 Computing Diagnostic #    538  TRAC28       Counter:       1   Parms: SMR     MR      
 Computing Diagnostic #    552  TRAC29       Counter:       1   Parms: SMR     MR      
 Computing Diagnostic #    566  TRAC30       Counter:       1   Parms: SMR     MR      
 Computing Diagnostic #    580  TRAC31       Counter:       1   Parms: SMR     MR      
 Computing Diagnostic #    594  TRAC32       Counter:       1   Parms: SMR     MR      
 Computing Diagnostic #    608  TRAC33       Counter:       1   Parms: SMR     MR      
 Computing Diagnostic #    622  TRAC34       Counter:       1   Parms: SMR     MR      
 Computing Diagnostic #    636  TRAC35       Counter:       1   Parms: SMR     MR      
 Computing Diagnostic #    650  TRAC36       Counter:       1   Parms: SMR     MR      
 Computing Diagnostic #    664  TRAC37       Counter:       1   Parms: SMR     MR      
 Computing Diagnostic #    678  TRAC38       Counter:       1   Parms: SMR     MR      
 Computing Diagnostic #    692  TRAC39       Counter:       1   Parms: SMR     MR      
 Computing Diagnostic #    706  TRAC40       Counter:       1   Parms: SMR     MR      
 Computing Diagnostic #    720  TRAC41       Counter:       1   Parms: SMR     MR      
 Computing Diagnostic #    734  TRAC42       Counter:       1   Parms: SMR     MR      
 Computing Diagnostic #    748  TRAC43       Counter:       1   Parms: SMR     MR      
 Computing Diagnostic #    762  TRAC44       Counter:       1   Parms: SMR     MR      
 Computing Diagnostic #    776  TRAC45       Counter:       1   Parms: SMR     MR      
 Computing Diagnostic #    790  TRAC46       Counter:       1   Parms: SMR     MR      
 Computing Diagnostic #    804  TRAC47       Counter:       1   Parms: SMR     MR      
 Computing Diagnostic #    818  TRAC48       Counter:       1   Parms: SMR     MR      
 Computing Diagnostic #    832  TRAC49       Counter:       1   Parms: SMR     MR      
 Computing Diagnostic #    853  PARF         Counter:       1   Parms: SM P    MR      
 Computing Diagnostic #    850  atten        Counter:       1   Parms: SM P    MR      
 Computing Diagnostic #    852  surfPAR      Counter:       1   Parms: SM P    MR      
 Computing Diagnostic #    851  exfPAR       Counter:       1   Parms: SM P    MR      
 Compute Stats, Diag. #    847  PP        vol(   0 ): 3.081E+13  Parms: SM P    MR      
 Compute Stats, Diag. #    848  Nfix      vol(   0 ): 3.081E+13  Parms: SM P    MR      
 Compute Stats, Diag. #    849  Denit     vol(   0 ): 3.081E+13  Parms: SM P    MR      
 prec           1          64
(PID.TID 0000.0001) %CHECKPOINT         4 ckptA
(PID.TID 0000.0001)   Seconds in section "ALL                    [THE_MODEL_MAIN]":
(PID.TID 0000.0001)           User time:   1.3400000000000001
(PID.TID 0000.0001)         System time:   4.9999999999999996E-002
(PID.TID 0000.0001)     Wall clock time:   1.4269258975982666
(PID.TID 0000.0001)          No. starts:           1
(PID.TID 0000.0001)           No. stops:           1
(PID.TID 0000.0001)   Seconds in section "INITIALISE_FIXED       [THE_MODEL_MAIN]":
(PID.TID 0000.0001)           User time:  0.69999999999999996
(PID.TID 0000.0001)         System time:   1.9999999999999997E-002
(PID.TID 0000.0001)     Wall clock time:  0.72413182258605957
(PID.TID 0000.0001)          No. starts:           1
(PID.TID 0000.0001)           No. stops:           1
(PID.TID 0000.0001)   Seconds in section "THE_MAIN_LOOP          [THE_MODEL_MAIN]":
(PID.TID 0000.0001)           User time:  0.64000000000000012
(PID.TID 0000.0001)         System time:   2.9999999999999999E-002
(PID.TID 0000.0001)     Wall clock time:  0.69954609870910645
(PID.TID 0000.0001)          No. starts:           1
(PID.TID 0000.0001)           No. stops:           1
(PID.TID 0000.0001)   Seconds in section "INITIALISE_VARIA    [THE_MAIN_LOOP]":
(PID.TID 0000.0001)           User time:   3.0000000000000027E-002
(PID.TID 0000.0001)         System time:   0.0000000000000000
(PID.TID 0000.0001)     Wall clock time:   4.5159101486206055E-002
(PID.TID 0000.0001)          No. starts:           1
(PID.TID 0000.0001)           No. stops:           1
(PID.TID 0000.0001)   Seconds in section "MAIN LOOP           [THE_MAIN_LOOP]":
(PID.TID 0000.0001)           User time:  0.61000000000000010
(PID.TID 0000.0001)         System time:   2.9999999999999999E-002
(PID.TID 0000.0001)     Wall clock time:  0.65436100959777832
(PID.TID 0000.0001)          No. starts:           1
(PID.TID 0000.0001)           No. stops:           1
(PID.TID 0000.0001)   Seconds in section "MAIN_DO_LOOP        [THE_MAIN_LOOP]":
(PID.TID 0000.0001)           User time:  0.60999999999999988
(PID.TID 0000.0001)         System time:   3.0000000000000006E-002
(PID.TID 0000.0001)     Wall clock time:  0.65431785583496094
(PID.TID 0000.0001)          No. starts:           4
(PID.TID 0000.0001)           No. stops:           4
(PID.TID 0000.0001)   Seconds in section "FORWARD_STEP        [MAIN_DO_LOOP]":
(PID.TID 0000.0001)           User time:  0.60999999999999988
(PID.TID 0000.0001)         System time:   3.0000000000000006E-002
(PID.TID 0000.0001)     Wall clock time:  0.65424990653991699
(PID.TID 0000.0001)          No. starts:           4
(PID.TID 0000.0001)           No. stops:           4
(PID.TID 0000.0001)   Seconds in section "DO_STATEVARS_DIAGS  [FORWARD_STEP]":
(PID.TID 0000.0001)           User time:   0.0000000000000000
(PID.TID 0000.0001)         System time:   0.0000000000000000
(PID.TID 0000.0001)     Wall clock time:   2.1026134490966797E-003
(PID.TID 0000.0001)          No. starts:           8
(PID.TID 0000.0001)           No. stops:           8
(PID.TID 0000.0001)   Seconds in section "LOAD_FIELDS_DRIVER  [FORWARD_STEP]":
(PID.TID 0000.0001)           User time:   0.0000000000000000
(PID.TID 0000.0001)         System time:   0.0000000000000000
(PID.TID 0000.0001)     Wall clock time:   3.2920837402343750E-003
(PID.TID 0000.0001)          No. starts:           4
(PID.TID 0000.0001)           No. stops:           4
(PID.TID 0000.0001)   Seconds in section "EXF_GETFORCING     [LOAD_FLDS_DRIVER]":
(PID.TID 0000.0001)           User time:   0.0000000000000000
(PID.TID 0000.0001)         System time:   0.0000000000000000
(PID.TID 0000.0001)     Wall clock time:   1.6129016876220703E-003
(PID.TID 0000.0001)          No. starts:           4
(PID.TID 0000.0001)           No. stops:           4
(PID.TID 0000.0001)   Seconds in section "EXTERNAL_FLDS_LOAD [LOAD_FLDS_DRIVER]":
(PID.TID 0000.0001)           User time:   0.0000000000000000
(PID.TID 0000.0001)         System time:   0.0000000000000000
(PID.TID 0000.0001)     Wall clock time:   1.2161731719970703E-003
(PID.TID 0000.0001)          No. starts:           4
(PID.TID 0000.0001)           No. stops:           4
(PID.TID 0000.0001)   Seconds in section "DO_ATMOSPHERIC_PHYS [FORWARD_STEP]":
(PID.TID 0000.0001)           User time:   0.0000000000000000
(PID.TID 0000.0001)         System time:   0.0000000000000000
(PID.TID 0000.0001)     Wall clock time:   3.4809112548828125E-005
(PID.TID 0000.0001)          No. starts:           4
(PID.TID 0000.0001)           No. stops:           4
(PID.TID 0000.0001)   Seconds in section "DO_OCEANIC_PHYS     [FORWARD_STEP]":
(PID.TID 0000.0001)           User time:   0.0000000000000000
(PID.TID 0000.0001)         System time:   1.0000000000000002E-002
(PID.TID 0000.0001)     Wall clock time:   4.2657852172851562E-003
(PID.TID 0000.0001)          No. starts:           4
(PID.TID 0000.0001)           No. stops:           4
(PID.TID 0000.0001)   Seconds in section "KPP_CALC [DO_OCEANIC_PHYS]":
(PID.TID 0000.0001)           User time:   0.0000000000000000
(PID.TID 0000.0001)         System time:   1.0000000000000002E-002
(PID.TID 0000.0001)     Wall clock time:   3.6568641662597656E-003
(PID.TID 0000.0001)          No. starts:           4
(PID.TID 0000.0001)           No. stops:           4
(PID.TID 0000.0001)   Seconds in section "GCHEM_CALC_TENDENCY [FORWARD_STEP]":
(PID.TID 0000.0001)           User time:   0.0000000000000000
(PID.TID 0000.0001)         System time:   0.0000000000000000
(PID.TID 0000.0001)     Wall clock time:   3.3855438232421875E-005
(PID.TID 0000.0001)          No. starts:           4
(PID.TID 0000.0001)           No. stops:           4
(PID.TID 0000.0001)   Seconds in section "THERMODYNAMICS      [FORWARD_STEP]":
(PID.TID 0000.0001)           User time:  0.12000000000000011
(PID.TID 0000.0001)         System time:   0.0000000000000000
(PID.TID 0000.0001)     Wall clock time:   9.9408864974975586E-002
(PID.TID 0000.0001)          No. starts:           4
(PID.TID 0000.0001)           No. stops:           4
(PID.TID 0000.0001)   Seconds in section "TRC_CORRECTION_STEP [FORWARD_STEP]":
(PID.TID 0000.0001)           User time:   0.0000000000000000
(PID.TID 0000.0001)         System time:   0.0000000000000000
(PID.TID 0000.0001)     Wall clock time:   3.2186508178710938E-005
(PID.TID 0000.0001)          No. starts:           4
(PID.TID 0000.0001)           No. stops:           4
(PID.TID 0000.0001)   Seconds in section "GCHEM_FORCING_SEP  [FORWARD_STEP]":
(PID.TID 0000.0001)           User time:   0.0000000000000000
(PID.TID 0000.0001)         System time:   0.0000000000000000
(PID.TID 0000.0001)     Wall clock time:   8.3885192871093750E-003
(PID.TID 0000.0001)          No. starts:           4
(PID.TID 0000.0001)           No. stops:           4
(PID.TID 0000.0001)   Seconds in section "GCHEM_DIAGNOSTICS [GCHEM_FORCING_SEP]":
(PID.TID 0000.0001)           User time:   0.0000000000000000
(PID.TID 0000.0001)         System time:   0.0000000000000000
(PID.TID 0000.0001)     Wall clock time:   3.6191940307617188E-004
(PID.TID 0000.0001)          No. starts:           4
(PID.TID 0000.0001)           No. stops:           4
(PID.TID 0000.0001)   Seconds in section "GUD_CONS [GCHEM_FORCING_SEP]":
(PID.TID 0000.0001)           User time:   0.0000000000000000
(PID.TID 0000.0001)         System time:   0.0000000000000000
(PID.TID 0000.0001)     Wall clock time:   4.7206878662109375E-004
(PID.TID 0000.0001)          No. starts:           8
(PID.TID 0000.0001)           No. stops:           8
(PID.TID 0000.0001)   Seconds in section "GCHEM_SURFMEAN [GCHEM_FORCING_SEP]":
(PID.TID 0000.0001)           User time:   0.0000000000000000
(PID.TID 0000.0001)         System time:   0.0000000000000000
(PID.TID 0000.0001)     Wall clock time:   3.7908554077148438E-005
(PID.TID 0000.0001)          No. starts:           4
(PID.TID 0000.0001)           No. stops:           4
(PID.TID 0000.0001)   Seconds in section "GUD_FORCING [GCHEM_FORCING_SEP]":
(PID.TID 0000.0001)           User time:   0.0000000000000000
(PID.TID 0000.0001)         System time:   0.0000000000000000
(PID.TID 0000.0001)     Wall clock time:   7.2901248931884766E-003
(PID.TID 0000.0001)          No. starts:           4
(PID.TID 0000.0001)           No. stops:           4
(PID.TID 0000.0001)   Seconds in section "GUD_LIGHT [GUD_FORCING]":
(PID.TID 0000.0001)           User time:   0.0000000000000000
(PID.TID 0000.0001)         System time:   0.0000000000000000
(PID.TID 0000.0001)     Wall clock time:   3.1161308288574219E-004
(PID.TID 0000.0001)          No. starts:           4
(PID.TID 0000.0001)           No. stops:           4
(PID.TID 0000.0001)   Seconds in section "GUD_SURFFORCING [GUD_FORCING]":
(PID.TID 0000.0001)           User time:   0.0000000000000000
(PID.TID 0000.0001)         System time:   0.0000000000000000
(PID.TID 0000.0001)     Wall clock time:   3.6621093750000000E-004
(PID.TID 0000.0001)          No. starts:           4
(PID.TID 0000.0001)           No. stops:           4
(PID.TID 0000.0001)   Seconds in section "GUD_FE_CHEM [GUD_FORCING]":
(PID.TID 0000.0001)           User time:   0.0000000000000000
(PID.TID 0000.0001)         System time:   0.0000000000000000
(PID.TID 0000.0001)     Wall clock time:   1.1420249938964844E-004
(PID.TID 0000.0001)          No. starts:           8
(PID.TID 0000.0001)           No. stops:           8
(PID.TID 0000.0001)   Seconds in section "GUD_FE_DUST [GUD_FORCING]":
(PID.TID 0000.0001)           User time:   0.0000000000000000
(PID.TID 0000.0001)         System time:   0.0000000000000000
(PID.TID 0000.0001)     Wall clock time:   3.5762786865234375E-005
(PID.TID 0000.0001)          No. starts:           4
(PID.TID 0000.0001)           No. stops:           4
(PID.TID 0000.0001)   Seconds in section "GUD_FE_SCAV [GUD_FORCING]":
(PID.TID 0000.0001)           User time:   0.0000000000000000
(PID.TID 0000.0001)         System time:   0.0000000000000000
(PID.TID 0000.0001)     Wall clock time:   5.5074691772460938E-005
(PID.TID 0000.0001)          No. starts:           4
(PID.TID 0000.0001)           No. stops:           4
(PID.TID 0000.0001)   Seconds in section "GUD_FE_SED [GUD_FORCING]":
(PID.TID 0000.0001)           User time:   0.0000000000000000
(PID.TID 0000.0001)         System time:   0.0000000000000000
(PID.TID 0000.0001)     Wall clock time:   3.9100646972656250E-005
(PID.TID 0000.0001)          No. starts:           4
(PID.TID 0000.0001)           No. stops:           4
(PID.TID 0000.0001)   Seconds in section "GUD_MODEL [GUD_FORCING]":
(PID.TID 0000.0001)           User time:   0.0000000000000000
(PID.TID 0000.0001)         System time:   0.0000000000000000
(PID.TID 0000.0001)     Wall clock time:   6.0987472534179688E-004
(PID.TID 0000.0001)          No. starts:           4
(PID.TID 0000.0001)           No. stops:           4
(PID.TID 0000.0001)   Seconds in section "GUD_SINKING [GUD_FORCING]":
(PID.TID 0000.0001)           User time:   0.0000000000000000
(PID.TID 0000.0001)         System time:   0.0000000000000000
(PID.TID 0000.0001)     Wall clock time:   4.8272609710693359E-003
(PID.TID 0000.0001)          No. starts:           4
(PID.TID 0000.0001)           No. stops:           4
(PID.TID 0000.0001)   Seconds in section "GUD_STEP [GUD_FORCING]":
(PID.TID 0000.0001)           User time:   0.0000000000000000
(PID.TID 0000.0001)         System time:   0.0000000000000000
(PID.TID 0000.0001)     Wall clock time:   1.5759468078613281E-004
(PID.TID 0000.0001)          No. starts:           4
(PID.TID 0000.0001)           No. stops:           4
(PID.TID 0000.0001)   Seconds in section "DIAGS_FILL [GUD_FORCING]":
(PID.TID 0000.0001)           User time:   0.0000000000000000
(PID.TID 0000.0001)         System time:   0.0000000000000000
(PID.TID 0000.0001)     Wall clock time:   1.8072128295898438E-004
(PID.TID 0000.0001)          No. starts:           4
(PID.TID 0000.0001)           No. stops:           4
(PID.TID 0000.0001)   Seconds in section "BLOCKING_EXCHANGES  [FORWARD_STEP]":
(PID.TID 0000.0001)           User time:   0.0000000000000000
(PID.TID 0000.0001)         System time:   0.0000000000000000
(PID.TID 0000.0001)     Wall clock time:   4.7934055328369141E-003
(PID.TID 0000.0001)          No. starts:           4
(PID.TID 0000.0001)           No. stops:           4
(PID.TID 0000.0001)   Seconds in section "DO_STATEVARS_TAVE   [FORWARD_STEP]":
(PID.TID 0000.0001)           User time:   0.0000000000000000
(PID.TID 0000.0001)         System time:   0.0000000000000000
(PID.TID 0000.0001)     Wall clock time:   2.1982192993164062E-004
(PID.TID 0000.0001)          No. starts:           4
(PID.TID 0000.0001)           No. stops:           4
(PID.TID 0000.0001)   Seconds in section "MONITOR             [FORWARD_STEP]":
(PID.TID 0000.0001)           User time:   0.0000000000000000
(PID.TID 0000.0001)         System time:   1.0000000000000002E-002
(PID.TID 0000.0001)     Wall clock time:   2.7737617492675781E-003
(PID.TID 0000.0001)          No. starts:           4
(PID.TID 0000.0001)           No. stops:           4
(PID.TID 0000.0001)   Seconds in section "DO_THE_MODEL_IO     [FORWARD_STEP]":
(PID.TID 0000.0001)           User time:  0.48000000000000020
(PID.TID 0000.0001)         System time:   0.0000000000000000
(PID.TID 0000.0001)     Wall clock time:  0.50865888595581055
(PID.TID 0000.0001)          No. starts:           4
(PID.TID 0000.0001)           No. stops:           4
(PID.TID 0000.0001)   Seconds in section "PTRACERS_RESET      [FORWARD_STEP]":
(PID.TID 0000.0001)           User time:   0.0000000000000000
(PID.TID 0000.0001)         System time:   0.0000000000000000
(PID.TID 0000.0001)     Wall clock time:   3.9100646972656250E-005
(PID.TID 0000.0001)          No. starts:           4
(PID.TID 0000.0001)           No. stops:           4
(PID.TID 0000.0001)   Seconds in section "DO_WRITE_PICKUP     [FORWARD_STEP]":
(PID.TID 0000.0001)           User time:   1.0000000000000009E-002
(PID.TID 0000.0001)         System time:   9.9999999999999950E-003
(PID.TID 0000.0001)     Wall clock time:   1.9639492034912109E-002
(PID.TID 0000.0001)          No. starts:           4
(PID.TID 0000.0001)           No. stops:           4
(PID.TID 0000.0001) // ======================================================
(PID.TID 0000.0001) // Tile <-> Tile communication statistics
(PID.TID 0000.0001) // ======================================================
(PID.TID 0000.0001) // o Tile number: 000001
(PID.TID 0000.0001) //         No. X exchanges =              0
(PID.TID 0000.0001) //            Max. X spins =              0
(PID.TID 0000.0001) //            Min. X spins =     1000000000
(PID.TID 0000.0001) //          Total. X spins =              0
(PID.TID 0000.0001) //            Avg. X spins =       0.00E+00
(PID.TID 0000.0001) //         No. Y exchanges =              0
(PID.TID 0000.0001) //            Max. Y spins =              0
(PID.TID 0000.0001) //            Min. Y spins =     1000000000
(PID.TID 0000.0001) //          Total. Y spins =              0
(PID.TID 0000.0001) //            Avg. Y spins =       0.00E+00
(PID.TID 0000.0001) // o Thread number: 000001
(PID.TID 0000.0001) //            No. barriers =          16096
(PID.TID 0000.0001) //      Max. barrier spins =              1
(PID.TID 0000.0001) //      Min. barrier spins =              1
(PID.TID 0000.0001) //     Total barrier spins =          16096
(PID.TID 0000.0001) //      Avg. barrier spins =       1.00E+00
PROGRAM MAIN: Execution ended Normally
