(PID.TID 0000.0001) %MON XC_max                       =   3.3550000000000000E+02
(PID.TID 0000.0001) %MON XC_min                       =   3.3550000000000000E+02
(PID.TID 0000.0001) %MON XC_mean                      =   3.3550000000000000E+02
(PID.TID 0000.0001) %MON XC_sd                        =   0.0000000000000000E+00
(PID.TID 0000.0001) %MON XG_max                       =   3.3500000000000000E+02
(PID.TID 0000.0001) %MON XG_min                       =   3.3500000000000000E+02
(PID.TID 0000.0001) %MON XG_mean                      =   3.3500000000000000E+02
(PID.TID 0000.0001) %MON XG_sd                        =   0.0000000000000000E+00
(PID.TID 0000.0001) %MON DXC_max                      =   1.0603184087719869E+05
(PID.TID 0000.0001) %MON DXC_min                      =   1.0603184087719869E+05
(PID.TID 0000.0001) %MON DXC_mean                     =   1.0603184087719869E+05
(PID.TID 0000.0001) %MON DXC_sd                       =   0.0000000000000000E+00
(PID.TID 0000.0001) %MON DXF_max                      =   1.0603184087719869E+05
(PID.TID 0000.0001) %MON DXF_min                      =   1.0603184087719869E+05
(PID.TID 0000.0001) %MON DXF_mean                     =   1.0603184087719869E+05
(PID.TID 0000.0001) %MON DXF_sd                       =   0.0000000000000000E+00
(PID.TID 0000.0001) %MON DXG_max                      =   1.0573606049668728E+05
(PID.TID 0000.0001) %MON DXG_min                      =   1.0573606049668728E+05
(PID.TID 0000.0001) %MON DXG_mean                     =   1.0573606049668728E+05
(PID.TID 0000.0001) %MON DXG_sd                       =   0.0000000000000000E+00
(PID.TID 0000.0001) %MON DXV_max                      =   1.0573606049668728E+05
(PID.TID 0000.0001) %MON DXV_min                      =   1.0573606049668728E+05
(PID.TID 0000.0001) %MON DXV_mean                     =   1.0573606049668728E+05
(PID.TID 0000.0001) %MON DXV_sd                       =   0.0000000000000000E+00
(PID.TID 0000.0001) %MON YC_max                       =  -1.7500000000000000E+01
(PID.TID 0000.0001) %MON YC_min                       =  -1.7500000000000000E+01
(PID.TID 0000.0001) %MON YC_mean                      =  -1.7500000000000000E+01
(PID.TID 0000.0001) %MON YC_sd                        =   0.0000000000000000E+00
(PID.TID 0000.0001) %MON YG_max                       =  -1.8000000000000000E+01
(PID.TID 0000.0001) %MON YG_min                       =  -1.8000000000000000E+01
(PID.TID 0000.0001) %MON YG_mean                      =  -1.8000000000000000E+01
(PID.TID 0000.0001) %MON YG_sd                        =   0.0000000000000000E+00
(PID.TID 0000.0001) %MON DYC_max                      =   1.1117747335203880E+05
(PID.TID 0000.0001) %MON DYC_min                      =   1.1117747335203880E+05
(PID.TID 0000.0001) %MON DYC_mean                     =   1.1117747335203880E+05
(PID.TID 0000.0001) %MON DYC_sd                       =   0.0000000000000000E+00
(PID.TID 0000.0001) %MON DYF_max                      =   1.1117747335203880E+05
(PID.TID 0000.0001) %MON DYF_min                      =   1.1117747335203880E+05
(PID.TID 0000.0001) %MON DYF_mean                     =   1.1117747335203880E+05
(PID.TID 0000.0001) %MON DYF_sd                       =   0.0000000000000000E+00
(PID.TID 0000.0001) %MON DYG_max                      =   1.1117747335203880E+05
(PID.TID 0000.0001) %MON DYG_min                      =   1.1117747335203880E+05
(PID.TID 0000.0001) %MON DYG_mean                     =   1.1117747335203880E+05
(PID.TID 0000.0001) %MON DYG_sd                       =   0.0000000000000000E+00
(PID.TID 0000.0001) %MON DYU_max                      =   1.1117747335203880E+05
(PID.TID 0000.0001) %MON DYU_min                      =   1.1117747335203880E+05
(PID.TID 0000.0001) %MON DYU_mean                     =   1.1117747335203880E+05
(PID.TID 0000.0001) %MON DYU_sd                       =   0.0000000000000000E+00
(PID.TID 0000.0001) %MON RA_max                       =   1.1788202541769560E+10
(PID.TID 0000.0001) %MON RA_min                       =   1.1788202541769560E+10
(PID.TID 0000.0001) %MON RA_mean                      =   1.1788202541769560E+10
(PID.TID 0000.0001) %MON RA_sd                        =   0.0000000000000000E+00
(PID.TID 0000.0001) %MON RAW_max                      =   1.1788202541769560E+10
(PID.TID 0000.0001) %MON RAW_min                      =   1.1788202541769560E+10
(PID.TID 0000.0001) %MON RAW_mean                     =   1.1788202541769560E+10
(PID.TID 0000.0001) %MON RAW_sd                       =   0.0000000000000000E+00
(PID.TID 0000.0001) %MON RAS_max                      =   1.1755318843773766E+10
(PID.TID 0000.0001) %MON RAS_min                      =   1.1755318843773766E+10
(PID.TID 0000.0001) %MON RAS_mean                     =   1.1755318843773766E+10
(PID.TID 0000.0001) %MON RAS_sd                       =   0.0000000000000000E+00
(PID.TID 0000.0001) %MON RAZ_max                      =   1.1755318843773766E+10
(PID.TID 0000.0001) %MON RAZ_min                      =   1.1755318843773766E+10
(PID.TID 0000.0001) %MON RAZ_mean                     =   1.1755318843773766E+10
(PID.TID 0000.0001) %MON RAZ_sd                       =   0.0000000000000000E+00
(PID.TID 0000.0001) %MON AngleCS_max                  =   1.0000000000000000E+00
(PID.TID 0000.0001) %MON AngleCS_min                  =   1.0000000000000000E+00
(PID.TID 0000.0001) %MON AngleCS_mean                 =   1.0000000000000000E+00
(PID.TID 0000.0001) %MON AngleCS_sd                   =   0.0000000000000000E+00
(PID.TID 0000.0001) %MON AngleSN_max                  =   0.0000000000000000E+00
(PID.TID 0000.0001) %MON AngleSN_min                  =   0.0000000000000000E+00
(PID.TID 0000.0001) %MON AngleSN_mean                 =   0.0000000000000000E+00
(PID.TID 0000.0001) %MON AngleSN_sd                   =   0.0000000000000000E+00
(PID.TID 0000.0001) %MON fCori_max                    =  -4.3855676645210050E-05
(PID.TID 0000.0001) %MON fCori_min                    =  -4.3855676645210050E-05
(PID.TID 0000.0001) %MON fCori_mean                   =  -4.3855676645210050E-05
(PID.TID 0000.0001) %MON fCori_sd                     =   0.0000000000000000E+00
(PID.TID 0000.0001) %MON fCoriG_max                   =  -4.5067801836624727E-05
(PID.TID 0000.0001) %MON fCoriG_min                   =  -4.5067801836624727E-05
(PID.TID 0000.0001) %MON fCoriG_mean                  =  -4.5067801836624727E-05
(PID.TID 0000.0001) %MON fCoriG_sd                    =   0.0000000000000000E+00
(PID.TID 0000.0001) %MON fCoriCos_max                 =   1.3909243610206993E-04
(PID.TID 0000.0001) %MON fCoriCos_min                 =   1.3909243610206993E-04
(PID.TID 0000.0001) %MON fCoriCos_mean                =   1.3909243610206993E-04
(PID.TID 0000.0001) %MON fCoriCos_sd                  =   0.0000000000000000E+00
(PID.TID 0000.0001) %MON time_tsnumber                =                     0
(PID.TID 0000.0001) %MON time_secondsf                =   0.0000000000000000E+00
(PID.TID 0000.0001) %MON dynstat_eta_max              =   0.0000000000000000E+00
(PID.TID 0000.0001) %MON dynstat_eta_min              =   0.0000000000000000E+00
(PID.TID 0000.0001) %MON dynstat_eta_mean             =   0.0000000000000000E+00
(PID.TID 0000.0001) %MON dynstat_eta_sd               =   0.0000000000000000E+00
(PID.TID 0000.0001) %MON dynstat_eta_del2             =   0.0000000000000000E+00
(PID.TID 0000.0001) %MON dynstat_uvel_max             =   0.0000000000000000E+00
(PID.TID 0000.0001) %MON dynstat_uvel_min             =   0.0000000000000000E+00
(PID.TID 0000.0001) %MON dynstat_uvel_mean            =   0.0000000000000000E+00
(PID.TID 0000.0001) %MON dynstat_uvel_sd              =   0.0000000000000000E+00
(PID.TID 0000.0001) %MON dynstat_uvel_del2            =   0.0000000000000000E+00
(PID.TID 0000.0001) %MON dynstat_vvel_max             =   0.0000000000000000E+00
(PID.TID 0000.0001) %MON dynstat_vvel_min             =   0.0000000000000000E+00
(PID.TID 0000.0001) %MON dynstat_vvel_mean            =   0.0000000000000000E+00
(PID.TID 0000.0001) %MON dynstat_vvel_sd              =   0.0000000000000000E+00
(PID.TID 0000.0001) %MON dynstat_vvel_del2            =   0.0000000000000000E+00
(PID.TID 0000.0001) %MON dynstat_wvel_max             =   0.0000000000000000E+00
(PID.TID 0000.0001) %MON dynstat_wvel_min             =   0.0000000000000000E+00
(PID.TID 0000.0001) %MON dynstat_wvel_mean            =   0.0000000000000000E+00
(PID.TID 0000.0001) %MON dynstat_wvel_sd              =   0.0000000000000000E+00
(PID.TID 0000.0001) %MON dynstat_wvel_del2            =   0.0000000000000000E+00
(PID.TID 0000.0001) %MON dynstat_theta_max            =   6.5096502304077148E+00
(PID.TID 0000.0001) %MON dynstat_theta_min            =  -9.3889999389648438E-01
(PID.TID 0000.0001) %MON dynstat_theta_mean           =   1.5603987870468788E-01
(PID.TID 0000.0001) %MON dynstat_theta_sd             =   2.0853921626072607E+00
(PID.TID 0000.0001) %MON dynstat_theta_del2           =   0.0000000000000000E+00
(PID.TID 0000.0001) %MON dynstat_salt_max             =   3.5000000000000000E+01
(PID.TID 0000.0001) %MON dynstat_salt_min             =   3.5000000000000000E+01
(PID.TID 0000.0001) %MON dynstat_salt_mean            =   3.5000000000000007E+01
(PID.TID 0000.0001) %MON dynstat_salt_sd              =   7.1054273576010019E-15
(PID.TID 0000.0001) %MON dynstat_salt_del2            =   0.0000000000000000E+00
(PID.TID 0000.0001) %MON dynstat_sst_max              =   6.5096502304077148E+00
(PID.TID 0000.0001) %MON dynstat_sst_min              =   6.5096502304077148E+00
(PID.TID 0000.0001) %MON dynstat_sst_mean             =   6.5096502304077148E+00
(PID.TID 0000.0001) %MON dynstat_sst_sd               =   0.0000000000000000E+00
(PID.TID 0000.0001) %MON dynstat_sst_del2             =   0.0000000000000000E+00
(PID.TID 0000.0001) %MON dynstat_sss_max              =   3.5000000000000000E+01
(PID.TID 0000.0001) %MON dynstat_sss_min              =   3.5000000000000000E+01
(PID.TID 0000.0001) %MON dynstat_sss_mean             =   3.5000000000000000E+01
(PID.TID 0000.0001) %MON dynstat_sss_sd               =   0.0000000000000000E+00
(PID.TID 0000.0001) %MON dynstat_sss_del2             =   0.0000000000000000E+00
(PID.TID 0000.0001) %MON forcing_qnet_max             =   0.0000000000000000E+00
(PID.TID 0000.0001) %MON forcing_qnet_min             =   0.0000000000000000E+00
(PID.TID 0000.0001) %MON forcing_qnet_mean            =   0.0000000000000000E+00
(PID.TID 0000.0001) %MON forcing_qnet_sd              =   0.0000000000000000E+00
(PID.TID 0000.0001) %MON forcing_qnet_del2            =   0.0000000000000000E+00
(PID.TID 0000.0001) %MON forcing_qsw_max              =   0.0000000000000000E+00
(PID.TID 0000.0001) %MON forcing_qsw_min              =   0.0000000000000000E+00
(PID.TID 0000.0001) %MON forcing_qsw_mean             =   0.0000000000000000E+00
(PID.TID 0000.0001) %MON forcing_qsw_sd               =   0.0000000000000000E+00
(PID.TID 0000.0001) %MON forcing_qsw_del2             =   0.0000000000000000E+00
(PID.TID 0000.0001) %MON forcing_empmr_max            =   0.0000000000000000E+00
(PID.TID 0000.0001) %MON forcing_empmr_min            =   0.0000000000000000E+00
(PID.TID 0000.0001) %MON forcing_empmr_mean           =   0.0000000000000000E+00
(PID.TID 0000.0001) %MON forcing_empmr_sd             =   0.0000000000000000E+00
(PID.TID 0000.0001) %MON forcing_empmr_del2           =   0.0000000000000000E+00
(PID.TID 0000.0001) %MON forcing_fu_max               =   1.8626669645309448E+00
(PID.TID 0000.0001) %MON forcing_fu_min               =   1.8626669645309448E+00
(PID.TID 0000.0001) %MON forcing_fu_mean              =   1.8626669645309448E+00
(PID.TID 0000.0001) %MON forcing_fu_sd                =   0.0000000000000000E+00
(PID.TID 0000.0001) %MON forcing_fu_del2              =   0.0000000000000000E+00
(PID.TID 0000.0001) %MON forcing_fv_max               =   1.5513329505920410E+00
(PID.TID 0000.0001) %MON forcing_fv_min               =   1.5513329505920410E+00
(PID.TID 0000.0001) %MON forcing_fv_mean              =   1.5513329505920410E+00
(PID.TID 0000.0001) %MON forcing_fv_sd                =   0.0000000000000000E+00
(PID.TID 0000.0001) %MON forcing_fv_del2              =   0.0000000000000000E+00
(PID.TID 0000.0001) %MON advcfl_uvel_max              =   0.0000000000000000E+00
(PID.TID 0000.0001) %MON advcfl_vvel_max              =   0.0000000000000000E+00
(PID.TID 0000.0001) %MON advcfl_wvel_max              =   0.0000000000000000E+00
(PID.TID 0000.0001) %MON advcfl_W_hf_max              =   0.0000000000000000E+00
(PID.TID 0000.0001) %MON pe_b_mean                    =   0.0000000000000000E+00
(PID.TID 0000.0001) %MON ke_max                       =   0.0000000000000000E+00
(PID.TID 0000.0001) %MON ke_mean                      =   0.0000000000000000E+00
(PID.TID 0000.0001) %MON ke_vol                       =   4.1199767883484609E+13
(PID.TID 0000.0001) %MON vort_r_min                   =   0.0000000000000000E+00
(PID.TID 0000.0001) %MON vort_r_max                   =   0.0000000000000000E+00
(PID.TID 0000.0001) %MON vort_a_mean                  =  -4.5067801836624727E-05
(PID.TID 0000.0001) %MON vort_a_sd                    =  -4.1359030627651384E-25
(PID.TID 0000.0001) %MON vort_p_mean                  =  -4.5067801836624727E-05
(PID.TID 0000.0001) %MON vort_p_sd                    =   0.0000000000000000E+00
(PID.TID 0000.0001) %MON surfExpan_theta_mean         =   0.0000000000000000E+00
(PID.TID 0000.0001) %MON surfExpan_salt_mean          =   0.0000000000000000E+00
(PID.TID 0000.0001) %MON trcstat_ptracer01_max        =   2.1623999023437500E+03
(PID.TID 0000.0001) %MON trcstat_ptracer01_min        =   2.0848964843750000E+03
(PID.TID 0000.0001) %MON trcstat_ptracer01_mean       =   2.1557233177698054E+03
(PID.TID 0000.0001) %MON trcstat_ptracer01_sd         =   1.1620928165015126E+01
(PID.TID 0000.0001) %MON trcstat_ptracer01_del2       =   0.0000000000000000E+00
(PID.TID 0000.0001) %MON trcstat_ptracer02_max        =   2.2952675353735685E-03
(PID.TID 0000.0001) %MON trcstat_ptracer02_min        =   0.0000000000000000E+00
(PID.TID 0000.0001) %MON trcstat_ptracer02_mean       =   3.3611169662653011E-04
(PID.TID 0000.0001) %MON trcstat_ptracer02_sd         =   4.7743954057330597E-04
(PID.TID 0000.0001) %MON trcstat_ptracer02_del2       =   0.0000000000000000E+00
(PID.TID 0000.0001) %MON trcstat_ptracer03_max        =   3.7918146699666977E-02
(PID.TID 0000.0001) %MON trcstat_ptracer03_min        =   0.0000000000000000E+00
(PID.TID 0000.0001) %MON trcstat_ptracer03_mean       =   7.8145818443747725E-03
(PID.TID 0000.0001) %MON trcstat_ptracer03_sd         =   1.0806319055981005E-02
(PID.TID 0000.0001) %MON trcstat_ptracer03_del2       =   0.0000000000000000E+00
(PID.TID 0000.0001) %MON trcstat_ptracer04_max        =   1.5341600418090820E+01
(PID.TID 0000.0001) %MON trcstat_ptracer04_min        =   1.1842899322509766E+01
(PID.TID 0000.0001) %MON trcstat_ptracer04_mean       =   1.4471561560132814E+01
(PID.TID 0000.0001) %MON trcstat_ptracer04_sd         =   9.1988937719317865E-01
(PID.TID 0000.0001) %MON trcstat_ptracer04_del2       =   0.0000000000000000E+00
(PID.TID 0000.0001) %MON trcstat_ptracer05_max        =                      NAN
(PID.TID 0000.0001) %MON trcstat_ptracer05_min        =                      NAN
(PID.TID 0000.0001) %MON trcstat_ptracer05_mean       =                      NAN
(PID.TID 0000.0001) %MON trcstat_ptracer05_sd         =                      NAN
(PID.TID 0000.0001) %MON trcstat_ptracer05_del2       =                      NAN
(PID.TID 0000.0001) %MON trcstat_ptracer06_max        =                      NAN
(PID.TID 0000.0001) %MON trcstat_ptracer06_min        =                      NAN
(PID.TID 0000.0001) %MON trcstat_ptracer06_mean       =                      NAN
(PID.TID 0000.0001) %MON trcstat_ptracer06_sd         =                      NAN
(PID.TID 0000.0001) %MON trcstat_ptracer06_del2       =                      NAN
(PID.TID 0000.0001) %MON trcstat_ptracer07_max        =   9.1629312373697758E-04
(PID.TID 0000.0001) %MON trcstat_ptracer07_min        =   0.0000000000000000E+00
(PID.TID 0000.0001) %MON trcstat_ptracer07_mean       =   5.7980704863418500E-04
(PID.TID 0000.0001) %MON trcstat_ptracer07_sd         =   3.7871275821034538E-04
(PID.TID 0000.0001) %MON trcstat_ptracer07_del2       =   0.0000000000000000E+00
(PID.TID 0000.0001) %MON trcstat_ptracer08_max        =   0.0000000000000000E+00
(PID.TID 0000.0001) %MON trcstat_ptracer08_min        =   0.0000000000000000E+00
(PID.TID 0000.0001) %MON trcstat_ptracer08_mean       =   0.0000000000000000E+00
(PID.TID 0000.0001) %MON trcstat_ptracer08_sd         =   0.0000000000000000E+00
(PID.TID 0000.0001) %MON trcstat_ptracer08_del2       =   0.0000000000000000E+00
(PID.TID 0000.0001) %MON trcstat_ptracer09_max        =   2.7267783880233765E-01
(PID.TID 0000.0001) %MON trcstat_ptracer09_min        =   0.0000000000000000E+00
(PID.TID 0000.0001) %MON trcstat_ptracer09_mean       =   3.3067342309608998E-02
(PID.TID 0000.0001) %MON trcstat_ptracer09_sd         =   8.3679774951305214E-02
(PID.TID 0000.0001) %MON trcstat_ptracer09_del2       =   0.0000000000000000E+00
(PID.TID 0000.0001) %MON trcstat_ptracer10_max        =                      NAN
(PID.TID 0000.0001) %MON trcstat_ptracer10_min        =                      NAN
(PID.TID 0000.0001) %MON trcstat_ptracer10_mean       =                      NAN
(PID.TID 0000.0001) %MON trcstat_ptracer10_sd         =                      NAN
(PID.TID 0000.0001) %MON trcstat_ptracer10_del2       =                      NAN
(PID.TID 0000.0001) %MON trcstat_ptracer11_max        =   1.7042364561348222E-05
(PID.TID 0000.0001) %MON trcstat_ptracer11_min        =   0.0000000000000000E+00
(PID.TID 0000.0001) %MON trcstat_ptracer11_mean       =   2.0667088931326983E-06
(PID.TID 0000.0001) %MON trcstat_ptracer11_sd         =   5.2299859300250572E-06
(PID.TID 0000.0001) %MON trcstat_ptracer11_del2       =   0.0000000000000000E+00
(PID.TID 0000.0001) %MON trcstat_ptracer12_max        =   0.0000000000000000E+00
(PID.TID 0000.0001) %MON trcstat_ptracer12_min        =   0.0000000000000000E+00
(PID.TID 0000.0001) %MON trcstat_ptracer12_mean       =   0.0000000000000000E+00
(PID.TID 0000.0001) %MON trcstat_ptracer12_sd         =   0.0000000000000000E+00
(PID.TID 0000.0001) %MON trcstat_ptracer12_del2       =   0.0000000000000000E+00
(PID.TID 0000.0001) %MON trcstat_ptracer13_max        =   3.0367041006684303E-02
(PID.TID 0000.0001) %MON trcstat_ptracer13_min        =   0.0000000000000000E+00
(PID.TID 0000.0001) %MON trcstat_ptracer13_mean       =   1.4939297063913042E-02
(PID.TID 0000.0001) %MON trcstat_ptracer13_sd         =   1.1118076667108259E-02
(PID.TID 0000.0001) %MON trcstat_ptracer13_del2       =   0.0000000000000000E+00
(PID.TID 0000.0001) %MON trcstat_ptracer14_max        =                      NAN
(PID.TID 0000.0001) %MON trcstat_ptracer14_min        =                      NAN
(PID.TID 0000.0001) %MON trcstat_ptracer14_mean       =                      NAN
(PID.TID 0000.0001) %MON trcstat_ptracer14_sd         =                      NAN
(PID.TID 0000.0001) %MON trcstat_ptracer14_del2       =                      NAN
(PID.TID 0000.0001) %MON trcstat_ptracer15_max        =                      NAN
(PID.TID 0000.0001) %MON trcstat_ptracer15_min        =                      NAN
(PID.TID 0000.0001) %MON trcstat_ptracer15_mean       =                      NAN
(PID.TID 0000.0001) %MON trcstat_ptracer15_sd         =                      NAN
(PID.TID 0000.0001) %MON trcstat_ptracer15_del2       =                      NAN
(PID.TID 0000.0001) %MON trcstat_ptracer16_max        =   1.8979401374963345E-06
(PID.TID 0000.0001) %MON trcstat_ptracer16_min        =   0.0000000000000000E+00
(PID.TID 0000.0001) %MON trcstat_ptracer16_mean       =   9.3370607446663094E-07
(PID.TID 0000.0001) %MON trcstat_ptracer16_sd         =   6.9487981699102024E-07
(PID.TID 0000.0001) %MON trcstat_ptracer16_del2       =   0.0000000000000000E+00
(PID.TID 0000.0001) %MON trcstat_ptracer17_max        =                      NAN
(PID.TID 0000.0001) %MON trcstat_ptracer17_min        =                      NAN
(PID.TID 0000.0001) %MON trcstat_ptracer17_mean       =                      NAN
(PID.TID 0000.0001) %MON trcstat_ptracer17_sd         =                      NAN
(PID.TID 0000.0001) %MON trcstat_ptracer17_del2       =                      NAN
(PID.TID 0000.0001) %MON trcstat_ptracer18_max        =   1.0000000000000000E+00
(PID.TID 0000.0001) %MON trcstat_ptracer18_min        =   0.0000000000000000E+00
(PID.TID 0000.0001) %MON trcstat_ptracer18_mean       =   1.4306151645207441E-02
(PID.TID 0000.0001) %MON trcstat_ptracer18_sd         =   1.1874967650613522E-01
(PID.TID 0000.0001) %MON trcstat_ptracer18_del2       =   0.0000000000000000E+00
(PID.TID 0000.0001) %MON trcstat_ptracer19_max        =   1.0000000000000000E+00
(PID.TID 0000.0001) %MON trcstat_ptracer19_min        =   0.0000000000000000E+00
(PID.TID 0000.0001) %MON trcstat_ptracer19_mean       =   1.4306151645207441E-02
(PID.TID 0000.0001) %MON trcstat_ptracer19_sd         =   1.1874967650613522E-01
(PID.TID 0000.0001) %MON trcstat_ptracer19_del2       =   0.0000000000000000E+00
(PID.TID 0000.0001) %MON trcstat_ptracer20_max        =   1.0000000000000000E+00
(PID.TID 0000.0001) %MON trcstat_ptracer20_min        =   0.0000000000000000E+00
(PID.TID 0000.0001) %MON trcstat_ptracer20_mean       =   1.4306151645207441E-02
(PID.TID 0000.0001) %MON trcstat_ptracer20_sd         =   1.1874967650613522E-01
(PID.TID 0000.0001) %MON trcstat_ptracer20_del2       =   0.0000000000000000E+00
(PID.TID 0000.0001) %MON trcstat_ptracer21_max        =   1.0000000000000000E+00
(PID.TID 0000.0001) %MON trcstat_ptracer21_min        =   0.0000000000000000E+00
(PID.TID 0000.0001) %MON trcstat_ptracer21_mean       =   1.4306151645207441E-02
(PID.TID 0000.0001) %MON trcstat_ptracer21_sd         =   1.1874967650613522E-01
(PID.TID 0000.0001) %MON trcstat_ptracer21_del2       =   0.0000000000000000E+00
(PID.TID 0000.0001) %MON trcstat_ptracer22_max        =   1.0000000000000000E+00
(PID.TID 0000.0001) %MON trcstat_ptracer22_min        =   0.0000000000000000E+00
(PID.TID 0000.0001) %MON trcstat_ptracer22_mean       =   1.4306151645207441E-02
(PID.TID 0000.0001) %MON trcstat_ptracer22_sd         =   1.1874967650613522E-01
(PID.TID 0000.0001) %MON trcstat_ptracer22_del2       =   0.0000000000000000E+00
(PID.TID 0000.0001) %MON trcstat_ptracer23_max        =   1.0000000000000000E+00
(PID.TID 0000.0001) %MON trcstat_ptracer23_min        =   0.0000000000000000E+00
(PID.TID 0000.0001) %MON trcstat_ptracer23_mean       =   1.4306151645207441E-02
(PID.TID 0000.0001) %MON trcstat_ptracer23_sd         =   1.1874967650613522E-01
(PID.TID 0000.0001) %MON trcstat_ptracer23_del2       =   0.0000000000000000E+00
(PID.TID 0000.0001) %MON trcstat_ptracer24_max        =   1.0000000000000000E+00
(PID.TID 0000.0001) %MON trcstat_ptracer24_min        =   0.0000000000000000E+00
(PID.TID 0000.0001) %MON trcstat_ptracer24_mean       =   1.4306151645207441E-02
(PID.TID 0000.0001) %MON trcstat_ptracer24_sd         =   1.1874967650613522E-01
(PID.TID 0000.0001) %MON trcstat_ptracer24_del2       =   0.0000000000000000E+00
(PID.TID 0000.0001) %MON trcstat_ptracer25_max        =   1.0000000000000000E+00
(PID.TID 0000.0001) %MON trcstat_ptracer25_min        =   0.0000000000000000E+00
(PID.TID 0000.0001) %MON trcstat_ptracer25_mean       =   1.4306151645207441E-02
(PID.TID 0000.0001) %MON trcstat_ptracer25_sd         =   1.1874967650613522E-01
(PID.TID 0000.0001) %MON trcstat_ptracer25_del2       =   0.0000000000000000E+00
(PID.TID 0000.0001) %MON trcstat_ptracer26_max        =   1.0000000000000000E+00
(PID.TID 0000.0001) %MON trcstat_ptracer26_min        =   0.0000000000000000E+00
(PID.TID 0000.0001) %MON trcstat_ptracer26_mean       =   1.4306151645207441E-02
(PID.TID 0000.0001) %MON trcstat_ptracer26_sd         =   1.1874967650613522E-01
(PID.TID 0000.0001) %MON trcstat_ptracer26_del2       =   0.0000000000000000E+00
(PID.TID 0000.0001) %MON trcstat_ptracer27_max        =   1.0000000000000000E+00
(PID.TID 0000.0001) %MON trcstat_ptracer27_min        =   0.0000000000000000E+00
(PID.TID 0000.0001) %MON trcstat_ptracer27_mean       =   1.4306151645207441E-02
(PID.TID 0000.0001) %MON trcstat_ptracer27_sd         =   1.1874967650613522E-01
(PID.TID 0000.0001) %MON trcstat_ptracer27_del2       =   0.0000000000000000E+00
(PID.TID 0000.0001) %MON trcstat_ptracer28_max        =   1.0000000000000000E+00
(PID.TID 0000.0001) %MON trcstat_ptracer28_min        =   0.0000000000000000E+00
(PID.TID 0000.0001) %MON trcstat_ptracer28_mean       =   1.4306151645207441E-02
(PID.TID 0000.0001) %MON trcstat_ptracer28_sd         =   1.1874967650613522E-01
(PID.TID 0000.0001) %MON trcstat_ptracer28_del2       =   0.0000000000000000E+00
(PID.TID 0000.0001) %MON trcstat_ptracer29_max        =   1.0000000000000000E+00
(PID.TID 0000.0001) %MON trcstat_ptracer29_min        =   0.0000000000000000E+00
(PID.TID 0000.0001) %MON trcstat_ptracer29_mean       =   1.4306151645207441E-02
(PID.TID 0000.0001) %MON trcstat_ptracer29_sd         =   1.1874967650613522E-01
(PID.TID 0000.0001) %MON trcstat_ptracer29_del2       =   0.0000000000000000E+00
(PID.TID 0000.0001) %MON trcstat_ptracer30_max        =   1.0000000000000000E+00
(PID.TID 0000.0001) %MON trcstat_ptracer30_min        =   0.0000000000000000E+00
(PID.TID 0000.0001) %MON trcstat_ptracer30_mean       =   1.4306151645207441E-02
(PID.TID 0000.0001) %MON trcstat_ptracer30_sd         =   1.1874967650613522E-01
(PID.TID 0000.0001) %MON trcstat_ptracer30_del2       =   0.0000000000000000E+00
(PID.TID 0000.0001) %MON trcstat_ptracer31_max        =   1.0000000000000000E+00
(PID.TID 0000.0001) %MON trcstat_ptracer31_min        =   0.0000000000000000E+00
(PID.TID 0000.0001) %MON trcstat_ptracer31_mean       =   1.4306151645207441E-02
(PID.TID 0000.0001) %MON trcstat_ptracer31_sd         =   1.1874967650613522E-01
(PID.TID 0000.0001) %MON trcstat_ptracer31_del2       =   0.0000000000000000E+00
(PID.TID 0000.0001) %MON trcstat_ptracer32_max        =   1.0000000000000000E+00
(PID.TID 0000.0001) %MON trcstat_ptracer32_min        =   0.0000000000000000E+00
(PID.TID 0000.0001) %MON trcstat_ptracer32_mean       =   1.4306151645207441E-02
(PID.TID 0000.0001) %MON trcstat_ptracer32_sd         =   1.1874967650613522E-01
(PID.TID 0000.0001) %MON trcstat_ptracer32_del2       =   0.0000000000000000E+00
(PID.TID 0000.0001) %MON trcstat_ptracer33_max        =   1.0000000000000000E+00
(PID.TID 0000.0001) %MON trcstat_ptracer33_min        =   0.0000000000000000E+00
(PID.TID 0000.0001) %MON trcstat_ptracer33_mean       =   1.4306151645207441E-02
(PID.TID 0000.0001) %MON trcstat_ptracer33_sd         =   1.1874967650613522E-01
(PID.TID 0000.0001) %MON trcstat_ptracer33_del2       =   0.0000000000000000E+00
(PID.TID 0000.0001) %MON trcstat_ptracer34_max        =   1.3333300000000001E-01
(PID.TID 0000.0001) %MON trcstat_ptracer34_min        =   0.0000000000000000E+00
(PID.TID 0000.0001) %MON trcstat_ptracer34_mean       =   1.9074821173104438E-03
(PID.TID 0000.0001) %MON trcstat_ptracer34_sd         =   1.5833250617592533E-02
(PID.TID 0000.0001) %MON trcstat_ptracer34_del2       =   0.0000000000000000E+00
(PID.TID 0000.0001) %MON trcstat_ptracer35_max        =   1.3333300000000001E-01
(PID.TID 0000.0001) %MON trcstat_ptracer35_min        =   0.0000000000000000E+00
(PID.TID 0000.0001) %MON trcstat_ptracer35_mean       =   1.9074821173104438E-03
(PID.TID 0000.0001) %MON trcstat_ptracer35_sd         =   1.5833250617592533E-02
(PID.TID 0000.0001) %MON trcstat_ptracer35_del2       =   0.0000000000000000E+00
(PID.TID 0000.0001) %MON trcstat_ptracer36_max        =   1.3333300000000001E-01
(PID.TID 0000.0001) %MON trcstat_ptracer36_min        =   0.0000000000000000E+00
(PID.TID 0000.0001) %MON trcstat_ptracer36_mean       =   1.9074821173104438E-03
(PID.TID 0000.0001) %MON trcstat_ptracer36_sd         =   1.5833250617592533E-02
(PID.TID 0000.0001) %MON trcstat_ptracer36_del2       =   0.0000000000000000E+00
(PID.TID 0000.0001) %MON trcstat_ptracer37_max        =   1.3333300000000001E-01
(PID.TID 0000.0001) %MON trcstat_ptracer37_min        =   0.0000000000000000E+00
(PID.TID 0000.0001) %MON trcstat_ptracer37_mean       =   1.9074821173104438E-03
(PID.TID 0000.0001) %MON trcstat_ptracer37_sd         =   1.5833250617592533E-02
(PID.TID 0000.0001) %MON trcstat_ptracer37_del2       =   0.0000000000000000E+00
(PID.TID 0000.0001) %MON trcstat_ptracer38_max        =   1.3333300000000001E-01
(PID.TID 0000.0001) %MON trcstat_ptracer38_min        =   0.0000000000000000E+00
(PID.TID 0000.0001) %MON trcstat_ptracer38_mean       =   1.9074821173104438E-03
(PID.TID 0000.0001) %MON trcstat_ptracer38_sd         =   1.5833250617592533E-02
(PID.TID 0000.0001) %MON trcstat_ptracer38_del2       =   0.0000000000000000E+00
(PID.TID 0000.0001) %MON trcstat_ptracer39_max        =   1.3333300000000001E-01
(PID.TID 0000.0001) %MON trcstat_ptracer39_min        =   0.0000000000000000E+00
(PID.TID 0000.0001) %MON trcstat_ptracer39_mean       =   1.9074821173104438E-03
(PID.TID 0000.0001) %MON trcstat_ptracer39_sd         =   1.5833250617592533E-02
(PID.TID 0000.0001) %MON trcstat_ptracer39_del2       =   0.0000000000000000E+00
(PID.TID 0000.0001) %MON trcstat_ptracer40_max        =   1.3333300000000001E-01
(PID.TID 0000.0001) %MON trcstat_ptracer40_min        =   0.0000000000000000E+00
(PID.TID 0000.0001) %MON trcstat_ptracer40_mean       =   1.9074821173104438E-03
(PID.TID 0000.0001) %MON trcstat_ptracer40_sd         =   1.5833250617592533E-02
(PID.TID 0000.0001) %MON trcstat_ptracer40_del2       =   0.0000000000000000E+00
(PID.TID 0000.0001) %MON trcstat_ptracer41_max        =   1.3333300000000001E-01
(PID.TID 0000.0001) %MON trcstat_ptracer41_min        =   0.0000000000000000E+00
(PID.TID 0000.0001) %MON trcstat_ptracer41_mean       =   1.9074821173104438E-03
(PID.TID 0000.0001) %MON trcstat_ptracer41_sd         =   1.5833250617592533E-02
(PID.TID 0000.0001) %MON trcstat_ptracer41_del2       =   0.0000000000000000E+00
(PID.TID 0000.0001) %MON trcstat_ptracer42_max        =   1.3333300000000001E-01
(PID.TID 0000.0001) %MON trcstat_ptracer42_min        =   0.0000000000000000E+00
(PID.TID 0000.0001) %MON trcstat_ptracer42_mean       =   1.9074821173104438E-03
(PID.TID 0000.0001) %MON trcstat_ptracer42_sd         =   1.5833250617592533E-02
(PID.TID 0000.0001) %MON trcstat_ptracer42_del2       =   0.0000000000000000E+00
(PID.TID 0000.0001) %MON trcstat_ptracer43_max        =   1.3333300000000001E-01
(PID.TID 0000.0001) %MON trcstat_ptracer43_min        =   0.0000000000000000E+00
(PID.TID 0000.0001) %MON trcstat_ptracer43_mean       =   1.9074821173104438E-03
(PID.TID 0000.0001) %MON trcstat_ptracer43_sd         =   1.5833250617592533E-02
(PID.TID 0000.0001) %MON trcstat_ptracer43_del2       =   0.0000000000000000E+00
(PID.TID 0000.0001) %MON trcstat_ptracer44_max        =   1.3333300000000001E-01
(PID.TID 0000.0001) %MON trcstat_ptracer44_min        =   0.0000000000000000E+00
(PID.TID 0000.0001) %MON trcstat_ptracer44_mean       =   1.9074821173104438E-03
(PID.TID 0000.0001) %MON trcstat_ptracer44_sd         =   1.5833250617592533E-02
(PID.TID 0000.0001) %MON trcstat_ptracer44_del2       =   0.0000000000000000E+00
(PID.TID 0000.0001) %MON trcstat_ptracer45_max        =   1.3333300000000001E-01
(PID.TID 0000.0001) %MON trcstat_ptracer45_min        =   0.0000000000000000E+00
(PID.TID 0000.0001) %MON trcstat_ptracer45_mean       =   1.9074821173104438E-03
(PID.TID 0000.0001) %MON trcstat_ptracer45_sd         =   1.5833250617592533E-02
(PID.TID 0000.0001) %MON trcstat_ptracer45_del2       =   0.0000000000000000E+00
(PID.TID 0000.0001) %MON trcstat_ptracer46_max        =   1.3333300000000001E-01
(PID.TID 0000.0001) %MON trcstat_ptracer46_min        =   0.0000000000000000E+00
(PID.TID 0000.0001) %MON trcstat_ptracer46_mean       =   1.9074821173104438E-03
(PID.TID 0000.0001) %MON trcstat_ptracer46_sd         =   1.5833250617592533E-02
(PID.TID 0000.0001) %MON trcstat_ptracer46_del2       =   0.0000000000000000E+00
(PID.TID 0000.0001) %MON trcstat_ptracer47_max        =   1.3333300000000001E-01
(PID.TID 0000.0001) %MON trcstat_ptracer47_min        =   0.0000000000000000E+00
(PID.TID 0000.0001) %MON trcstat_ptracer47_mean       =   1.9074821173104438E-03
(PID.TID 0000.0001) %MON trcstat_ptracer47_sd         =   1.5833250617592533E-02
(PID.TID 0000.0001) %MON trcstat_ptracer47_del2       =   0.0000000000000000E+00
(PID.TID 0000.0001) %MON trcstat_ptracer48_max        =   1.3333300000000001E-01
(PID.TID 0000.0001) %MON trcstat_ptracer48_min        =   0.0000000000000000E+00
(PID.TID 0000.0001) %MON trcstat_ptracer48_mean       =   1.9074821173104438E-03
(PID.TID 0000.0001) %MON trcstat_ptracer48_sd         =   1.5833250617592533E-02
(PID.TID 0000.0001) %MON trcstat_ptracer48_del2       =   0.0000000000000000E+00
(PID.TID 0000.0001) %MON trcstat_ptracer49_max        =   1.3333300000000001E-01
(PID.TID 0000.0001) %MON trcstat_ptracer49_min        =   0.0000000000000000E+00
(PID.TID 0000.0001) %MON trcstat_ptracer49_mean       =   1.9074821173104438E-03
(PID.TID 0000.0001) %MON trcstat_ptracer49_sd         =   1.5833250617592533E-02
(PID.TID 0000.0001) %MON trcstat_ptracer49_del2       =   0.0000000000000000E+00
(PID.TID 0000.0001) %MON trcstat_ptracer50_max        =   1.0000000000000001E-05
(PID.TID 0000.0001) %MON trcstat_ptracer50_min        =   0.0000000000000000E+00
(PID.TID 0000.0001) %MON trcstat_ptracer50_mean       =   1.4306151645207441E-07
(PID.TID 0000.0001) %MON trcstat_ptracer50_sd         =   1.1874967650613524E-06
(PID.TID 0000.0001) %MON trcstat_ptracer50_del2       =   0.0000000000000000E+00
(PID.TID 0000.0001) %MON trcstat_ptracer51_max        =   1.0000000000000001E-05
(PID.TID 0000.0001) %MON trcstat_ptracer51_min        =   0.0000000000000000E+00
(PID.TID 0000.0001) %MON trcstat_ptracer51_mean       =   1.4306151645207441E-07
(PID.TID 0000.0001) %MON trcstat_ptracer51_sd         =   1.1874967650613524E-06
(PID.TID 0000.0001) %MON trcstat_ptracer51_del2       =   0.0000000000000000E+00
(PID.TID 0000.0001) %MON trcstat_ptracer52_max        =   1.0000000000000001E-05
(PID.TID 0000.0001) %MON trcstat_ptracer52_min        =   0.0000000000000000E+00
(PID.TID 0000.0001) %MON trcstat_ptracer52_mean       =   1.4306151645207441E-07
(PID.TID 0000.0001) %MON trcstat_ptracer52_sd         =   1.1874967650613524E-06
(PID.TID 0000.0001) %MON trcstat_ptracer52_del2       =   0.0000000000000000E+00
(PID.TID 0000.0001) %MON trcstat_ptracer53_max        =   1.0000000000000001E-05
(PID.TID 0000.0001) %MON trcstat_ptracer53_min        =   0.0000000000000000E+00
(PID.TID 0000.0001) %MON trcstat_ptracer53_mean       =   1.4306151645207441E-07
(PID.TID 0000.0001) %MON trcstat_ptracer53_sd         =   1.1874967650613524E-06
(PID.TID 0000.0001) %MON trcstat_ptracer53_del2       =   0.0000000000000000E+00
(PID.TID 0000.0001) %MON trcstat_ptracer54_max        =   1.0000000000000001E-05
(PID.TID 0000.0001) %MON trcstat_ptracer54_min        =   0.0000000000000000E+00
(PID.TID 0000.0001) %MON trcstat_ptracer54_mean       =   1.4306151645207441E-07
(PID.TID 0000.0001) %MON trcstat_ptracer54_sd         =   1.1874967650613524E-06
(PID.TID 0000.0001) %MON trcstat_ptracer54_del2       =   0.0000000000000000E+00
(PID.TID 0000.0001) %MON trcstat_ptracer55_max        =   1.0000000000000001E-05
(PID.TID 0000.0001) %MON trcstat_ptracer55_min        =   0.0000000000000000E+00
(PID.TID 0000.0001) %MON trcstat_ptracer55_mean       =   1.4306151645207441E-07
(PID.TID 0000.0001) %MON trcstat_ptracer55_sd         =   1.1874967650613524E-06
(PID.TID 0000.0001) %MON trcstat_ptracer55_del2       =   0.0000000000000000E+00
(PID.TID 0000.0001) %MON trcstat_ptracer56_max        =   1.0000000000000001E-05
(PID.TID 0000.0001) %MON trcstat_ptracer56_min        =   0.0000000000000000E+00
(PID.TID 0000.0001) %MON trcstat_ptracer56_mean       =   1.4306151645207441E-07
(PID.TID 0000.0001) %MON trcstat_ptracer56_sd         =   1.1874967650613524E-06
(PID.TID 0000.0001) %MON trcstat_ptracer56_del2       =   0.0000000000000000E+00
(PID.TID 0000.0001) %MON trcstat_ptracer57_max        =   1.0000000000000001E-05
(PID.TID 0000.0001) %MON trcstat_ptracer57_min        =   0.0000000000000000E+00
(PID.TID 0000.0001) %MON trcstat_ptracer57_mean       =   1.4306151645207441E-07
(PID.TID 0000.0001) %MON trcstat_ptracer57_sd         =   1.1874967650613524E-06
(PID.TID 0000.0001) %MON trcstat_ptracer57_del2       =   0.0000000000000000E+00
(PID.TID 0000.0001) %MON trcstat_ptracer58_max        =   1.0000000000000001E-05
(PID.TID 0000.0001) %MON trcstat_ptracer58_min        =   0.0000000000000000E+00
(PID.TID 0000.0001) %MON trcstat_ptracer58_mean       =   1.4306151645207441E-07
(PID.TID 0000.0001) %MON trcstat_ptracer58_sd         =   1.1874967650613524E-06
(PID.TID 0000.0001) %MON trcstat_ptracer58_del2       =   0.0000000000000000E+00
(PID.TID 0000.0001) %MON trcstat_ptracer59_max        =   1.0000000000000001E-05
(PID.TID 0000.0001) %MON trcstat_ptracer59_min        =   0.0000000000000000E+00
(PID.TID 0000.0001) %MON trcstat_ptracer59_mean       =   1.4306151645207441E-07
(PID.TID 0000.0001) %MON trcstat_ptracer59_sd         =   1.1874967650613524E-06
(PID.TID 0000.0001) %MON trcstat_ptracer59_del2       =   0.0000000000000000E+00
(PID.TID 0000.0001) %MON trcstat_ptracer60_max        =   1.0000000000000001E-05
(PID.TID 0000.0001) %MON trcstat_ptracer60_min        =   0.0000000000000000E+00
(PID.TID 0000.0001) %MON trcstat_ptracer60_mean       =   1.4306151645207441E-07
(PID.TID 0000.0001) %MON trcstat_ptracer60_sd         =   1.1874967650613524E-06
(PID.TID 0000.0001) %MON trcstat_ptracer60_del2       =   0.0000000000000000E+00
(PID.TID 0000.0001) %MON trcstat_ptracer61_max        =   1.0000000000000001E-05
(PID.TID 0000.0001) %MON trcstat_ptracer61_min        =   0.0000000000000000E+00
(PID.TID 0000.0001) %MON trcstat_ptracer61_mean       =   1.4306151645207441E-07
(PID.TID 0000.0001) %MON trcstat_ptracer61_sd         =   1.1874967650613524E-06
(PID.TID 0000.0001) %MON trcstat_ptracer61_del2       =   0.0000000000000000E+00
(PID.TID 0000.0001) %MON trcstat_ptracer62_max        =   1.0000000000000001E-05
(PID.TID 0000.0001) %MON trcstat_ptracer62_min        =   0.0000000000000000E+00
(PID.TID 0000.0001) %MON trcstat_ptracer62_mean       =   1.4306151645207441E-07
(PID.TID 0000.0001) %MON trcstat_ptracer62_sd         =   1.1874967650613524E-06
(PID.TID 0000.0001) %MON trcstat_ptracer62_del2       =   0.0000000000000000E+00
(PID.TID 0000.0001) %MON trcstat_ptracer63_max        =   1.0000000000000001E-05
(PID.TID 0000.0001) %MON trcstat_ptracer63_min        =   0.0000000000000000E+00
(PID.TID 0000.0001) %MON trcstat_ptracer63_mean       =   1.4306151645207441E-07
(PID.TID 0000.0001) %MON trcstat_ptracer63_sd         =   1.1874967650613524E-06
(PID.TID 0000.0001) %MON trcstat_ptracer63_del2       =   0.0000000000000000E+00
(PID.TID 0000.0001) %MON trcstat_ptracer64_max        =   1.0000000000000001E-05
(PID.TID 0000.0001) %MON trcstat_ptracer64_min        =   0.0000000000000000E+00
(PID.TID 0000.0001) %MON trcstat_ptracer64_mean       =   1.4306151645207441E-07
(PID.TID 0000.0001) %MON trcstat_ptracer64_sd         =   1.1874967650613524E-06
(PID.TID 0000.0001) %MON trcstat_ptracer64_del2       =   0.0000000000000000E+00
(PID.TID 0000.0001) %MON trcstat_ptracer65_max        =   1.0000000000000001E-05
(PID.TID 0000.0001) %MON trcstat_ptracer65_min        =   0.0000000000000000E+00
(PID.TID 0000.0001) %MON trcstat_ptracer65_mean       =   1.4306151645207441E-07
(PID.TID 0000.0001) %MON trcstat_ptracer65_sd         =   1.1874967650613524E-06
(PID.TID 0000.0001) %MON trcstat_ptracer65_del2       =   0.0000000000000000E+00
(PID.TID 0000.0001) %MON trcstat_ptracer66_max        =   1.4999999999999999E-01
(PID.TID 0000.0001) %MON trcstat_ptracer66_min        =   0.0000000000000000E+00
(PID.TID 0000.0001) %MON trcstat_ptracer66_mean       =   2.1459227467811159E-03
(PID.TID 0000.0001) %MON trcstat_ptracer66_sd         =   1.7812451475920286E-02
(PID.TID 0000.0001) %MON trcstat_ptracer66_del2       =   0.0000000000000000E+00
(PID.TID 0000.0001) %MON trcstat_ptracer67_max        =   1.4999999999999999E-01
(PID.TID 0000.0001) %MON trcstat_ptracer67_min        =   0.0000000000000000E+00
(PID.TID 0000.0001) %MON trcstat_ptracer67_mean       =   2.1459227467811159E-03
(PID.TID 0000.0001) %MON trcstat_ptracer67_sd         =   1.7812451475920286E-02
(PID.TID 0000.0001) %MON trcstat_ptracer67_del2       =   0.0000000000000000E+00
(PID.TID 0000.0001) %MON trcstat_ptracer68_max        =   1.4999999999999999E-01
(PID.TID 0000.0001) %MON trcstat_ptracer68_min        =   0.0000000000000000E+00
(PID.TID 0000.0001) %MON trcstat_ptracer68_mean       =   2.1459227467811159E-03
(PID.TID 0000.0001) %MON trcstat_ptracer68_sd         =   1.7812451475920286E-02
(PID.TID 0000.0001) %MON trcstat_ptracer68_del2       =   0.0000000000000000E+00
(PID.TID 0000.0001) %MON trcstat_ptracer69_max        =   1.4999999999999999E-01
(PID.TID 0000.0001) %MON trcstat_ptracer69_min        =   0.0000000000000000E+00
(PID.TID 0000.0001) %MON trcstat_ptracer69_mean       =   2.1459227467811159E-03
(PID.TID 0000.0001) %MON trcstat_ptracer69_sd         =   1.7812451475920286E-02
(PID.TID 0000.0001) %MON trcstat_ptracer69_del2       =   0.0000000000000000E+00
(PID.TID 0000.0001) %MON trcstat_ptracer70_max        =   1.4999999999999999E-01
(PID.TID 0000.0001) %MON trcstat_ptracer70_min        =   0.0000000000000000E+00
(PID.TID 0000.0001) %MON trcstat_ptracer70_mean       =   2.1459227467811159E-03
(PID.TID 0000.0001) %MON trcstat_ptracer70_sd         =   1.7812451475920286E-02
(PID.TID 0000.0001) %MON trcstat_ptracer70_del2       =   0.0000000000000000E+00
(PID.TID 0000.0001) %MON trcstat_ptracer71_max        =   1.4999999999999999E-01
(PID.TID 0000.0001) %MON trcstat_ptracer71_min        =   0.0000000000000000E+00
(PID.TID 0000.0001) %MON trcstat_ptracer71_mean       =   2.1459227467811159E-03
(PID.TID 0000.0001) %MON trcstat_ptracer71_sd         =   1.7812451475920286E-02
(PID.TID 0000.0001) %MON trcstat_ptracer71_del2       =   0.0000000000000000E+00
(PID.TID 0000.0001) %MON trcstat_ptracer72_max        =   1.4999999999999999E-01
(PID.TID 0000.0001) %MON trcstat_ptracer72_min        =   0.0000000000000000E+00
(PID.TID 0000.0001) %MON trcstat_ptracer72_mean       =   2.1459227467811159E-03
(PID.TID 0000.0001) %MON trcstat_ptracer72_sd         =   1.7812451475920286E-02
(PID.TID 0000.0001) %MON trcstat_ptracer72_del2       =   0.0000000000000000E+00
(PID.TID 0000.0001) %MON trcstat_ptracer73_max        =   1.4999999999999999E-01
(PID.TID 0000.0001) %MON trcstat_ptracer73_min        =   0.0000000000000000E+00
(PID.TID 0000.0001) %MON trcstat_ptracer73_mean       =   2.1459227467811159E-03
(PID.TID 0000.0001) %MON trcstat_ptracer73_sd         =   1.7812451475920286E-02
(PID.TID 0000.0001) %MON trcstat_ptracer73_del2       =   0.0000000000000000E+00
(PID.TID 0000.0001) %MON trcstat_ptracer74_max        =   1.4999999999999999E-01
(PID.TID 0000.0001) %MON trcstat_ptracer74_min        =   0.0000000000000000E+00
(PID.TID 0000.0001) %MON trcstat_ptracer74_mean       =   2.1459227467811159E-03
(PID.TID 0000.0001) %MON trcstat_ptracer74_sd         =   1.7812451475920286E-02
(PID.TID 0000.0001) %MON trcstat_ptracer74_del2       =   0.0000000000000000E+00
(PID.TID 0000.0001) %MON trcstat_ptracer75_max        =   1.4999999999999999E-01
(PID.TID 0000.0001) %MON trcstat_ptracer75_min        =   0.0000000000000000E+00
(PID.TID 0000.0001) %MON trcstat_ptracer75_mean       =   2.1459227467811159E-03
(PID.TID 0000.0001) %MON trcstat_ptracer75_sd         =   1.7812451475920286E-02
(PID.TID 0000.0001) %MON trcstat_ptracer75_del2       =   0.0000000000000000E+00
(PID.TID 0000.0001) %MON trcstat_ptracer76_max        =   1.4999999999999999E-01
(PID.TID 0000.0001) %MON trcstat_ptracer76_min        =   0.0000000000000000E+00
(PID.TID 0000.0001) %MON trcstat_ptracer76_mean       =   2.1459227467811159E-03
(PID.TID 0000.0001) %MON trcstat_ptracer76_sd         =   1.7812451475920286E-02
(PID.TID 0000.0001) %MON trcstat_ptracer76_del2       =   0.0000000000000000E+00
(PID.TID 0000.0001) %MON trcstat_ptracer77_max        =   1.4999999999999999E-01
(PID.TID 0000.0001) %MON trcstat_ptracer77_min        =   0.0000000000000000E+00
(PID.TID 0000.0001) %MON trcstat_ptracer77_mean       =   2.1459227467811159E-03
(PID.TID 0000.0001) %MON trcstat_ptracer77_sd         =   1.7812451475920286E-02
(PID.TID 0000.0001) %MON trcstat_ptracer77_del2       =   0.0000000000000000E+00
(PID.TID 0000.0001) %MON trcstat_ptracer78_max        =   1.4999999999999999E-01
(PID.TID 0000.0001) %MON trcstat_ptracer78_min        =   0.0000000000000000E+00
(PID.TID 0000.0001) %MON trcstat_ptracer78_mean       =   2.1459227467811159E-03
(PID.TID 0000.0001) %MON trcstat_ptracer78_sd         =   1.7812451475920286E-02
(PID.TID 0000.0001) %MON trcstat_ptracer78_del2       =   0.0000000000000000E+00
(PID.TID 0000.0001) %MON trcstat_ptracer79_max        =   1.4999999999999999E-01
(PID.TID 0000.0001) %MON trcstat_ptracer79_min        =   0.0000000000000000E+00
(PID.TID 0000.0001) %MON trcstat_ptracer79_mean       =   2.1459227467811159E-03
(PID.TID 0000.0001) %MON trcstat_ptracer79_sd         =   1.7812451475920286E-02
(PID.TID 0000.0001) %MON trcstat_ptracer79_del2       =   0.0000000000000000E+00
(PID.TID 0000.0001) %MON trcstat_ptracer80_max        =   1.4999999999999999E-01
(PID.TID 0000.0001) %MON trcstat_ptracer80_min        =   0.0000000000000000E+00
(PID.TID 0000.0001) %MON trcstat_ptracer80_mean       =   2.1459227467811159E-03
(PID.TID 0000.0001) %MON trcstat_ptracer80_sd         =   1.7812451475920286E-02
(PID.TID 0000.0001) %MON trcstat_ptracer80_del2       =   0.0000000000000000E+00
(PID.TID 0000.0001) %MON time_tsnumber                =                     1
(PID.TID 0000.0001) %MON time_secondsf                =   1.0800000000000000E+04
(PID.TID 0000.0001) %MON dynstat_eta_max              =   0.0000000000000000E+00
(PID.TID 0000.0001) %MON dynstat_eta_min              =   0.0000000000000000E+00
(PID.TID 0000.0001) %MON dynstat_eta_mean             =   0.0000000000000000E+00
(PID.TID 0000.0001) %MON dynstat_eta_sd               =   0.0000000000000000E+00
(PID.TID 0000.0001) %MON dynstat_eta_del2             =   0.0000000000000000E+00
(PID.TID 0000.0001) %MON dynstat_uvel_max             =   0.0000000000000000E+00
(PID.TID 0000.0001) %MON dynstat_uvel_min             =   0.0000000000000000E+00
(PID.TID 0000.0001) %MON dynstat_uvel_mean            =   0.0000000000000000E+00
(PID.TID 0000.0001) %MON dynstat_uvel_sd              =   0.0000000000000000E+00
(PID.TID 0000.0001) %MON dynstat_uvel_del2            =   0.0000000000000000E+00
(PID.TID 0000.0001) %MON dynstat_vvel_max             =   0.0000000000000000E+00
(PID.TID 0000.0001) %MON dynstat_vvel_min             =   0.0000000000000000E+00
(PID.TID 0000.0001) %MON dynstat_vvel_mean            =   0.0000000000000000E+00
(PID.TID 0000.0001) %MON dynstat_vvel_sd              =   0.0000000000000000E+00
(PID.TID 0000.0001) %MON dynstat_vvel_del2            =   0.0000000000000000E+00
(PID.TID 0000.0001) %MON dynstat_wvel_max             =   0.0000000000000000E+00
(PID.TID 0000.0001) %MON dynstat_wvel_min             =   0.0000000000000000E+00
(PID.TID 0000.0001) %MON dynstat_wvel_mean            =   0.0000000000000000E+00
(PID.TID 0000.0001) %MON dynstat_wvel_sd              =   0.0000000000000000E+00
(PID.TID 0000.0001) %MON dynstat_wvel_del2            =   0.0000000000000000E+00
(PID.TID 0000.0001) %MON dynstat_theta_max            =   6.5044922881521119E+00
(PID.TID 0000.0001) %MON dynstat_theta_min            =  -9.3889137359886188E-01
(PID.TID 0000.0001) %MON dynstat_theta_mean           =   1.5606152272304019E-01
(PID.TID 0000.0001) %MON dynstat_theta_sd             =   2.0854479480469177E+00
(PID.TID 0000.0001) %MON dynstat_theta_del2           =   0.0000000000000000E+00
(PID.TID 0000.0001) %MON dynstat_salt_max             =   3.5000000000000000E+01
(PID.TID 0000.0001) %MON dynstat_salt_min             =   3.5000000000000000E+01
(PID.TID 0000.0001) %MON dynstat_salt_mean            =   3.5000000000000007E+01
(PID.TID 0000.0001) %MON dynstat_salt_sd              =   7.1054273576010019E-15
(PID.TID 0000.0001) %MON dynstat_salt_del2            =   0.0000000000000000E+00
(PID.TID 0000.0001) %MON dynstat_sst_max              =   6.5044922881521119E+00
(PID.TID 0000.0001) %MON dynstat_sst_min              =   6.5044922881521119E+00
(PID.TID 0000.0001) %MON dynstat_sst_mean             =   6.5044922881521110E+00
(PID.TID 0000.0001) %MON dynstat_sst_sd               =   8.8817841970012523E-16
(PID.TID 0000.0001) %MON dynstat_sst_del2             =   0.0000000000000000E+00
(PID.TID 0000.0001) %MON dynstat_sss_max              =   3.5000000000000000E+01
(PID.TID 0000.0001) %MON dynstat_sss_min              =   3.5000000000000000E+01
(PID.TID 0000.0001) %MON dynstat_sss_mean             =   3.5000000000000000E+01
(PID.TID 0000.0001) %MON dynstat_sss_sd               =   0.0000000000000000E+00
(PID.TID 0000.0001) %MON dynstat_sss_del2             =   0.0000000000000000E+00
(PID.TID 0000.0001) %MON forcing_qnet_max             =   0.0000000000000000E+00
(PID.TID 0000.0001) %MON forcing_qnet_min             =   0.0000000000000000E+00
(PID.TID 0000.0001) %MON forcing_qnet_mean            =   0.0000000000000000E+00
(PID.TID 0000.0001) %MON forcing_qnet_sd              =   0.0000000000000000E+00
(PID.TID 0000.0001) %MON forcing_qnet_del2            =   0.0000000000000000E+00
(PID.TID 0000.0001) %MON forcing_qsw_max              =   0.0000000000000000E+00
(PID.TID 0000.0001) %MON forcing_qsw_min              =   0.0000000000000000E+00
(PID.TID 0000.0001) %MON forcing_qsw_mean             =   0.0000000000000000E+00
(PID.TID 0000.0001) %MON forcing_qsw_sd               =   0.0000000000000000E+00
(PID.TID 0000.0001) %MON forcing_qsw_del2             =   0.0000000000000000E+00
(PID.TID 0000.0001) %MON forcing_empmr_max            =   0.0000000000000000E+00
(PID.TID 0000.0001) %MON forcing_empmr_min            =   0.0000000000000000E+00
(PID.TID 0000.0001) %MON forcing_empmr_mean           =   0.0000000000000000E+00
(PID.TID 0000.0001) %MON forcing_empmr_sd             =   0.0000000000000000E+00
(PID.TID 0000.0001) %MON forcing_empmr_del2           =   0.0000000000000000E+00
(PID.TID 0000.0001) %MON forcing_fu_max               =   2.2785000205039978E+00
(PID.TID 0000.0001) %MON forcing_fu_min               =   2.2785000205039978E+00
(PID.TID 0000.0001) %MON forcing_fu_mean              =   2.2785000205039978E+00
(PID.TID 0000.0001) %MON forcing_fu_sd                =   0.0000000000000000E+00
(PID.TID 0000.0001) %MON forcing_fu_del2              =   0.0000000000000000E+00
(PID.TID 0000.0001) %MON forcing_fv_max               =   1.1411664783954620E+00
(PID.TID 0000.0001) %MON forcing_fv_min               =   1.1411664783954620E+00
(PID.TID 0000.0001) %MON forcing_fv_mean              =   1.1411664783954620E+00
(PID.TID 0000.0001) %MON forcing_fv_sd                =   0.0000000000000000E+00
(PID.TID 0000.0001) %MON forcing_fv_del2              =   0.0000000000000000E+00
(PID.TID 0000.0001) %MON advcfl_uvel_max              =   0.0000000000000000E+00
(PID.TID 0000.0001) %MON advcfl_vvel_max              =   0.0000000000000000E+00
(PID.TID 0000.0001) %MON advcfl_wvel_max              =   0.0000000000000000E+00
(PID.TID 0000.0001) %MON advcfl_W_hf_max              =   0.0000000000000000E+00
(PID.TID 0000.0001) %MON pe_b_mean                    =   0.0000000000000000E+00
(PID.TID 0000.0001) %MON ke_max                       =   0.0000000000000000E+00
(PID.TID 0000.0001) %MON ke_mean                      =   0.0000000000000000E+00
(PID.TID 0000.0001) %MON ke_vol                       =   4.1199767883484609E+13
(PID.TID 0000.0001) %MON vort_r_min                   =   0.0000000000000000E+00
(PID.TID 0000.0001) %MON vort_r_max                   =   0.0000000000000000E+00
(PID.TID 0000.0001) %MON vort_a_mean                  =  -4.5067801836624727E-05
(PID.TID 0000.0001) %MON vort_a_sd                    =  -4.1359030627651384E-25
(PID.TID 0000.0001) %MON vort_p_mean                  =  -4.5067801836624727E-05
(PID.TID 0000.0001) %MON vort_p_sd                    =   0.0000000000000000E+00
(PID.TID 0000.0001) %MON surfExpan_theta_mean         =   0.0000000000000000E+00
(PID.TID 0000.0001) %MON surfExpan_salt_mean          =   0.0000000000000000E+00
(PID.TID 0000.0001) %MON trcstat_ptracer01_max        =   2.1623998992270181E+03
(PID.TID 0000.0001) %MON trcstat_ptracer01_min        =   2.0889455644554132E+03
(PID.TID 0000.0001) %MON trcstat_ptracer01_mean       =   2.1557283498653678E+03
(PID.TID 0000.0001) %MON trcstat_ptracer01_sd         =   1.1576383470301309E+01
(PID.TID 0000.0001) %MON trcstat_ptracer01_del2       =   0.0000000000000000E+00
(PID.TID 0000.0001) %MON trcstat_ptracer02_max        =   1.6952772051858486E-03
(PID.TID 0000.0001) %MON trcstat_ptracer02_min        =   5.9811021671841591E-12
(PID.TID 0000.0001) %MON trcstat_ptracer02_mean       =   3.0186900802569477E-04
(PID.TID 0000.0001) %MON trcstat_ptracer02_sd         =   4.1996964336106653E-04
(PID.TID 0000.0001) %MON trcstat_ptracer02_del2       =   0.0000000000000000E+00
(PID.TID 0000.0001) %MON trcstat_ptracer03_max        =   3.7817310758028536E-02
(PID.TID 0000.0001) %MON trcstat_ptracer03_min        =   2.9766930430658432E-13
(PID.TID 0000.0001) %MON trcstat_ptracer03_mean       =   7.4360000452113493E-03
(PID.TID 0000.0001) %MON trcstat_ptracer03_sd         =   1.0153910142462559E-02
(PID.TID 0000.0001) %MON trcstat_ptracer03_del2       =   0.0000000000000000E+00
(PID.TID 0000.0001) %MON trcstat_ptracer04_max        =   1.5341574218869177E+01
(PID.TID 0000.0001) %MON trcstat_ptracer04_min        =   1.1742273078225463E+01
(PID.TID 0000.0001) %MON trcstat_ptracer04_mean       =   1.4469787923256819E+01
(PID.TID 0000.0001) %MON trcstat_ptracer04_sd         =   9.2515463616917226E-01
(PID.TID 0000.0001) %MON trcstat_ptracer04_del2       =   0.0000000000000000E+00
(PID.TID 0000.0001) %MON trcstat_ptracer05_max        =                      NAN
(PID.TID 0000.0001) %MON trcstat_ptracer05_min        =                      NAN
(PID.TID 0000.0001) %MON trcstat_ptracer05_mean       =                      NAN
(PID.TID 0000.0001) %MON trcstat_ptracer05_sd         =                      NAN
(PID.TID 0000.0001) %MON trcstat_ptracer05_del2       =                      NAN
(PID.TID 0000.0001) %MON trcstat_ptracer06_max        =                      NAN
(PID.TID 0000.0001) %MON trcstat_ptracer06_min        =                      NAN
(PID.TID 0000.0001) %MON trcstat_ptracer06_mean       =                      NAN
(PID.TID 0000.0001) %MON trcstat_ptracer06_sd         =                      NAN
(PID.TID 0000.0001) %MON trcstat_ptracer06_del2       =                      NAN
(PID.TID 0000.0001) %MON trcstat_ptracer07_max        =   9.1627624673918274E-04
(PID.TID 0000.0001) %MON trcstat_ptracer07_min        =   5.9696099753159385E-14
(PID.TID 0000.0001) %MON trcstat_ptracer07_mean       =   5.7971376259285544E-04
(PID.TID 0000.0001) %MON trcstat_ptracer07_sd         =   3.7864515852312691E-04
(PID.TID 0000.0001) %MON trcstat_ptracer07_del2       =   0.0000000000000000E+00
(PID.TID 0000.0001) %MON trcstat_ptracer08_max        =   5.3367603060721214E-01
(PID.TID 0000.0001) %MON trcstat_ptracer08_min        =  3.8975239371454242E-121
(PID.TID 0000.0001) %MON trcstat_ptracer08_mean       =   7.6717684554300147E-03
(PID.TID 0000.0001) %MON trcstat_ptracer08_sd         =   6.2848001305886275E-02
(PID.TID 0000.0001) %MON trcstat_ptracer08_del2       =   0.0000000000000000E+00
(PID.TID 0000.0001) %MON trcstat_ptracer09_max        =   3.4349609148538318E-01
(PID.TID 0000.0001) %MON trcstat_ptracer09_min        =   1.3687260131070274E-47
(PID.TID 0000.0001) %MON trcstat_ptracer09_mean       =   3.4051453677053617E-02
(PID.TID 0000.0001) %MON trcstat_ptracer09_sd         =   8.6865299520679978E-02
(PID.TID 0000.0001) %MON trcstat_ptracer09_del2       =   0.0000000000000000E+00
(PID.TID 0000.0001) %MON trcstat_ptracer10_max        =                      NAN
(PID.TID 0000.0001) %MON trcstat_ptracer10_min        =                      NAN
(PID.TID 0000.0001) %MON trcstat_ptracer10_mean       =                      NAN
(PID.TID 0000.0001) %MON trcstat_ptracer10_sd         =                      NAN
(PID.TID 0000.0001) %MON trcstat_ptracer10_del2       =                      NAN
(PID.TID 0000.0001) %MON trcstat_ptracer11_max        =   1.9509887105244232E-05
(PID.TID 0000.0001) %MON trcstat_ptracer11_min        =   8.5545376668032645E-52
(PID.TID 0000.0001) %MON trcstat_ptracer11_mean       =   2.1000643113062061E-06
(PID.TID 0000.0001) %MON trcstat_ptracer11_sd         =   5.3333030272242591E-06
(PID.TID 0000.0001) %MON trcstat_ptracer11_del2       =   0.0000000000000000E+00
(PID.TID 0000.0001) %MON trcstat_ptracer12_max        =   3.5953522757532852E-01
(PID.TID 0000.0001) %MON trcstat_ptracer12_min        =  2.3711390669188771E-118
(PID.TID 0000.0001) %MON trcstat_ptracer12_mean       =   5.1785313903312822E-03
(PID.TID 0000.0001) %MON trcstat_ptracer12_sd         =   4.2103249185430028E-02
(PID.TID 0000.0001) %MON trcstat_ptracer12_del2       =   0.0000000000000000E+00
(PID.TID 0000.0001) %MON trcstat_ptracer13_max        =   5.6690534954014243E-02
(PID.TID 0000.0001) %MON trcstat_ptracer13_min        =   3.0485635784248230E-08
(PID.TID 0000.0001) %MON trcstat_ptracer13_mean       =   1.5584917402728686E-02
(PID.TID 0000.0001) %MON trcstat_ptracer13_sd         =   1.2086164010814250E-02
(PID.TID 0000.0001) %MON trcstat_ptracer13_del2       =   0.0000000000000000E+00
(PID.TID 0000.0001) %MON trcstat_ptracer14_max        =                      NAN
(PID.TID 0000.0001) %MON trcstat_ptracer14_min        =                      NAN
(PID.TID 0000.0001) %MON trcstat_ptracer14_mean       =                      NAN
(PID.TID 0000.0001) %MON trcstat_ptracer14_sd         =                      NAN
(PID.TID 0000.0001) %MON trcstat_ptracer14_del2       =                      NAN
(PID.TID 0000.0001) %MON trcstat_ptracer15_max        =                      NAN
(PID.TID 0000.0001) %MON trcstat_ptracer15_min        =                      NAN
(PID.TID 0000.0001) %MON trcstat_ptracer15_mean       =                      NAN
(PID.TID 0000.0001) %MON trcstat_ptracer15_sd         =                      NAN
(PID.TID 0000.0001) %MON trcstat_ptracer15_del2       =                      NAN
(PID.TID 0000.0001) %MON trcstat_ptracer16_max        =   2.2808979288423604E-06
(PID.TID 0000.0001) %MON trcstat_ptracer16_min        =   1.9053520518545479E-12
(PID.TID 0000.0001) %MON trcstat_ptracer16_mean       =   9.5586703951339133E-07
(PID.TID 0000.0001) %MON trcstat_ptracer16_sd         =   7.0912413978345361E-07
(PID.TID 0000.0001) %MON trcstat_ptracer16_del2       =   0.0000000000000000E+00
(PID.TID 0000.0001) %MON trcstat_ptracer17_max        =                      NAN
(PID.TID 0000.0001) %MON trcstat_ptracer17_min        =                      NAN
(PID.TID 0000.0001) %MON trcstat_ptracer17_mean       =                      NAN
(PID.TID 0000.0001) %MON trcstat_ptracer17_sd         =                      NAN
(PID.TID 0000.0001) %MON trcstat_ptracer17_del2       =                      NAN
(PID.TID 0000.0001) %MON trcstat_ptracer18_max        =   8.2582894878605806E-01
(PID.TID 0000.0001) %MON trcstat_ptracer18_min        =  6.7161975566125419E-120
(PID.TID 0000.0001) %MON trcstat_ptracer18_mean       =   1.1973950081878770E-02
(PID.TID 0000.0001) %MON trcstat_ptracer18_sd         =   9.7135393732008857E-02
(PID.TID 0000.0001) %MON trcstat_ptracer18_del2       =   0.0000000000000000E+00
(PID.TID 0000.0001) %MON trcstat_ptracer19_max        =   8.4834572728140578E-01
(PID.TID 0000.0001) %MON trcstat_ptracer19_min        =  7.1544852361803756E-120
(PID.TID 0000.0001) %MON trcstat_ptracer19_mean       =   1.2303713516013080E-02
(PID.TID 0000.0001) %MON trcstat_ptracer19_sd         =   9.9805882844738930E-02
(PID.TID 0000.0001) %MON trcstat_ptracer19_del2       =   0.0000000000000000E+00
(PID.TID 0000.0001) %MON trcstat_ptracer20_max        =   8.6637258393543859E-01
(PID.TID 0000.0001) %MON trcstat_ptracer20_min        =  7.8999624885793504E-120
(PID.TID 0000.0001) %MON trcstat_ptracer20_mean       =   1.2567073465400794E-02
(PID.TID 0000.0001) %MON trcstat_ptracer20_sd         =   1.0193823296191819E-01
(PID.TID 0000.0001) %MON trcstat_ptracer20_del2       =   0.0000000000000000E+00
(PID.TID 0000.0001) %MON trcstat_ptracer21_max        =   8.8048390314587333E-01
(PID.TID 0000.0001) %MON trcstat_ptracer21_min        =  9.2963527418446380E-120
(PID.TID 0000.0001) %MON trcstat_ptracer21_mean       =   1.2774709302640871E-02
(PID.TID 0000.0001) %MON trcstat_ptracer21_sd         =   1.0361874558603730E-01
(PID.TID 0000.0001) %MON trcstat_ptracer21_del2       =   0.0000000000000000E+00
(PID.TID 0000.0001) %MON trcstat_ptracer22_max        =   8.9149177627373910E-01
(PID.TID 0000.0001) %MON trcstat_ptracer22_min        =  1.2069288116756706E-119
(PID.TID 0000.0001) %MON trcstat_ptracer22_mean       =   1.2937262128385927E-02
(PID.TID 0000.0001) %MON trcstat_ptracer22_sd         =   1.0493360687612810E-01
(PID.TID 0000.0001) %MON trcstat_ptracer22_del2       =   0.0000000000000000E+00
(PID.TID 0000.0001) %MON trcstat_ptracer23_max        =   9.0004964435036960E-01
(PID.TID 0000.0001) %MON trcstat_ptracer23_min        =  1.7774057720165133E-119
(PID.TID 0000.0001) %MON trcstat_ptracer23_mean       =   1.3063753464472756E-02
(PID.TID 0000.0001) %MON trcstat_ptracer23_sd         =   1.0595576781261141E-01
(PID.TID 0000.0001) %MON trcstat_ptracer23_del2       =   0.0000000000000000E+00
(PID.TID 0000.0001) %MON trcstat_ptracer24_max        =   9.0653247840047335E-01
(PID.TID 0000.0001) %MON trcstat_ptracer24_min        =  2.9781690576017035E-119
(PID.TID 0000.0001) %MON trcstat_ptracer24_mean       =   1.3161164505619058E-02
(PID.TID 0000.0001) %MON trcstat_ptracer24_sd         =   1.0674144333378208E-01
(PID.TID 0000.0001) %MON trcstat_ptracer24_del2       =   0.0000000000000000E+00
(PID.TID 0000.0001) %MON trcstat_ptracer25_max        =   9.1140024542596842E-01
(PID.TID 0000.0001) %MON trcstat_ptracer25_min        =  5.5461114505378996E-119
(PID.TID 0000.0001) %MON trcstat_ptracer25_mean       =   1.3235705535630407E-02
(PID.TID 0000.0001) %MON trcstat_ptracer25_sd         =   1.0734069834634521E-01
(PID.TID 0000.0001) %MON trcstat_ptracer25_del2       =   0.0000000000000000E+00
(PID.TID 0000.0001) %MON trcstat_ptracer26_max        =   9.1496590369443265E-01
(PID.TID 0000.0001) %MON trcstat_ptracer26_min        =  1.1102651363848158E-118
(PID.TID 0000.0001) %MON trcstat_ptracer26_mean       =   1.3292208740532880E-02
(PID.TID 0000.0001) %MON trcstat_ptracer26_sd         =   1.0779230147075400E-01
(PID.TID 0000.0001) %MON trcstat_ptracer26_del2       =   0.0000000000000000E+00
(PID.TID 0000.0001) %MON trcstat_ptracer27_max        =   9.1911417585373090E-01
(PID.TID 0000.0001) %MON trcstat_ptracer27_min        =  4.9901138800798898E-118
(PID.TID 0000.0001) %MON trcstat_ptracer27_mean       =   1.3365317453837303E-02
(PID.TID 0000.0001) %MON trcstat_ptracer27_sd         =   1.0836571515991054E-01
(PID.TID 0000.0001) %MON trcstat_ptracer27_del2       =   0.0000000000000000E+00
(PID.TID 0000.0001) %MON trcstat_ptracer28_max        =   9.1844834854883750E-01
(PID.TID 0000.0001) %MON trcstat_ptracer28_min        =  1.0883389848921291E-117
(PID.TID 0000.0001) %MON trcstat_ptracer28_mean       =   1.3365348189873161E-02
(PID.TID 0000.0001) %MON trcstat_ptracer28_sd         =   1.0835168087318664E-01
(PID.TID 0000.0001) %MON trcstat_ptracer28_del2       =   0.0000000000000000E+00
(PID.TID 0000.0001) %MON trcstat_ptracer29_max        =   9.1807309979244278E-01
(PID.TID 0000.0001) %MON trcstat_ptracer29_min        =  2.3962146213582894E-117
(PID.TID 0000.0001) %MON trcstat_ptracer29_mean       =   1.3365385722070185E-02
(PID.TID 0000.0001) %MON trcstat_ptracer29_sd         =   1.0833329581788069E-01
(PID.TID 0000.0001) %MON trcstat_ptracer29_del2       =   0.0000000000000000E+00
(PID.TID 0000.0001) %MON trcstat_ptracer30_max        =   9.1807076610471128E-01
(PID.TID 0000.0001) %MON trcstat_ptracer30_min        =  5.3080404283387566E-117
(PID.TID 0000.0001) %MON trcstat_ptracer30_mean       =   1.3365439640745276E-02
(PID.TID 0000.0001) %MON trcstat_ptracer30_sd         =   1.0830929222434489E-01
(PID.TID 0000.0001) %MON trcstat_ptracer30_del2       =   0.0000000000000000E+00
(PID.TID 0000.0001) %MON trcstat_ptracer31_max        =   9.1806646969880878E-01
(PID.TID 0000.0001) %MON trcstat_ptracer31_min        =  1.1806900466674106E-116
(PID.TID 0000.0001) %MON trcstat_ptracer31_mean       =   1.3365514980275007E-02
(PID.TID 0000.0001) %MON trcstat_ptracer31_sd         =   1.0827796018724560E-01
(PID.TID 0000.0001) %MON trcstat_ptracer31_del2       =   0.0000000000000000E+00
(PID.TID 0000.0001) %MON trcstat_ptracer32_max        =   9.1805855700338068E-01
(PID.TID 0000.0001) %MON trcstat_ptracer32_min        =  2.6339228812796900E-116
(PID.TID 0000.0001) %MON trcstat_ptracer32_mean       =   1.3365618222628757E-02
(PID.TID 0000.0001) %MON trcstat_ptracer32_sd         =   1.0823708257265427E-01
(PID.TID 0000.0001) %MON trcstat_ptracer32_del2       =   0.0000000000000000E+00
(PID.TID 0000.0001) %MON trcstat_ptracer33_max        =   1.0685376794523287E+00
(PID.TID 0000.0001) %MON trcstat_ptracer33_min        =  6.7113170297150685E-120
(PID.TID 0000.0001) %MON trcstat_ptracer33_mean       =   1.5513865965371323E-02
(PID.TID 0000.0001) %MON trcstat_ptracer33_sd         =   1.2602233214353431E-01
(PID.TID 0000.0001) %MON trcstat_ptracer33_del2       =   0.0000000000000000E+00
(PID.TID 0000.0001) %MON trcstat_ptracer34_max        =   1.6500256573494115E-01
(PID.TID 0000.0001) %MON trcstat_ptracer34_min        =  1.1332849057300570E-120
(PID.TID 0000.0001) %MON trcstat_ptracer34_mean       =   2.3999510510294988E-03
(PID.TID 0000.0001) %MON trcstat_ptracer34_sd         =   1.9462857044869792E-02
(PID.TID 0000.0001) %MON trcstat_ptracer34_del2       =   0.0000000000000000E+00
(PID.TID 0000.0001) %MON trcstat_ptracer35_max        =   1.5486888989672384E-01
(PID.TID 0000.0001) %MON trcstat_ptracer35_min        =  1.1400533705993570E-120
(PID.TID 0000.0001) %MON trcstat_ptracer35_mean       =   2.2526638896185184E-03
(PID.TID 0000.0001) %MON trcstat_ptracer35_sd         =   1.8268942263661360E-02
(PID.TID 0000.0001) %MON trcstat_ptracer35_del2       =   0.0000000000000000E+00
(PID.TID 0000.0001) %MON trcstat_ptracer36_max        =   1.4679269946876022E-01
(PID.TID 0000.0001) %MON trcstat_ptracer36_min        =  1.1979493346522592E-120
(PID.TID 0000.0001) %MON trcstat_ptracer36_mean       =   2.1353113921219378E-03
(PID.TID 0000.0001) %MON trcstat_ptracer36_sd         =   1.7317617692689573E-02
(PID.TID 0000.0001) %MON trcstat_ptracer36_del2       =   0.0000000000000000E+00
(PID.TID 0000.0001) %MON trcstat_ptracer37_max        =   1.4041695929738221E-01
(PID.TID 0000.0001) %MON trcstat_ptracer37_min        =  1.3511257625502988E-120
(PID.TID 0000.0001) %MON trcstat_ptracer37_mean       =   2.0427449520854899E-03
(PID.TID 0000.0001) %MON trcstat_ptracer37_sd         =   1.6567107696777172E-02
(PID.TID 0000.0001) %MON trcstat_ptracer37_del2       =   0.0000000000000000E+00
(PID.TID 0000.0001) %MON trcstat_ptracer38_max        =   1.3542402028727554E-01
(PID.TID 0000.0001) %MON trcstat_ptracer38_min        =  1.6948623551579766E-120
(PID.TID 0000.0001) %MON trcstat_ptracer38_mean       =   1.9703379836657959E-03
(PID.TID 0000.0001) %MON trcstat_ptracer38_sd         =   1.5979893471258406E-02
(PID.TID 0000.0001) %MON trcstat_ptracer38_del2       =   0.0000000000000000E+00
(PID.TID 0000.0001) %MON trcstat_ptracer39_max        =   1.3154001568659049E-01
(PID.TID 0000.0001) %MON trcstat_ptracer39_min        =  2.4352129501435841E-120
(PID.TID 0000.0001) %MON trcstat_ptracer39_mean       =   1.9141181153831254E-03
(PID.TID 0000.0001) %MON trcstat_ptracer39_sd         =   1.5523764966521142E-02
(PID.TID 0000.0001) %MON trcstat_ptracer39_del2       =   0.0000000000000000E+00
(PID.TID 0000.0001) %MON trcstat_ptracer40_max        =   1.2853596364553499E-01
(PID.TID 0000.0001) %MON trcstat_ptracer40_min        =  4.0204017959224308E-120
(PID.TID 0000.0001) %MON trcstat_ptracer40_mean       =   1.8707806529637857E-03
(PID.TID 0000.0001) %MON trcstat_ptracer40_sd         =   1.5171920537150874E-02
(PID.TID 0000.0001) %MON trcstat_ptracer40_del2       =   0.0000000000000000E+00
(PID.TID 0000.0001) %MON trcstat_ptracer41_max        =   1.2622590389547164E-01
(PID.TID 0000.0001) %MON trcstat_ptracer41_min        =  7.4316557678294853E-120
(PID.TID 0000.0001) %MON trcstat_ptracer41_mean       =   1.8376385778672223E-03
(PID.TID 0000.0001) %MON trcstat_ptracer41_sd         =   1.4902557024433299E-02
(PID.TID 0000.0001) %MON trcstat_ptracer41_del2       =   0.0000000000000000E+00
(PID.TID 0000.0001) %MON trcstat_ptracer42_max        =   1.2448434339951016E-01
(PID.TID 0000.0001) %MON trcstat_ptracer42_min        =  1.4829333251762680E-119
(PID.TID 0000.0001) %MON trcstat_ptracer42_mean       =   1.8125324661804915E-03
(PID.TID 0000.0001) %MON trcstat_ptracer42_sd         =   1.4698133810465072E-02
(PID.TID 0000.0001) %MON trcstat_ptracer42_del2       =   0.0000000000000000E+00
(PID.TID 0000.0001) %MON trcstat_ptracer43_max        =   1.2225869958516038E-01
(PID.TID 0000.0001) %MON trcstat_ptracer43_min        =  6.6534685397269241E-119
(PID.TID 0000.0001) %MON trcstat_ptracer43_mean       =   1.7801435153772338E-03
(PID.TID 0000.0001) %MON trcstat_ptracer43_sd         =   1.4432918367775801E-02
(PID.TID 0000.0001) %MON trcstat_ptracer43_del2       =   0.0000000000000000E+00
(PID.TID 0000.0001) %MON trcstat_ptracer44_max        =   1.2225863714523685E-01
(PID.TID 0000.0001) %MON trcstat_ptracer44_min        =  1.4511150187262235E-118
(PID.TID 0000.0001) %MON trcstat_ptracer44_mean       =   1.7801474773057322E-03
(PID.TID 0000.0001) %MON trcstat_ptracer44_sd         =   1.4431051757685611E-02
(PID.TID 0000.0001) %MON trcstat_ptracer44_del2       =   0.0000000000000000E+00
(PID.TID 0000.0001) %MON trcstat_ptracer45_max        =   1.2225848867152046E-01
(PID.TID 0000.0001) %MON trcstat_ptracer45_min        =  3.1949448410956503E-118
(PID.TID 0000.0001) %MON trcstat_ptracer45_mean       =   1.7801558348380573E-03
(PID.TID 0000.0001) %MON trcstat_ptracer45_sd         =   1.4428635897344675E-02
(PID.TID 0000.0001) %MON trcstat_ptracer45_del2       =   0.0000000000000000E+00
(PID.TID 0000.0001) %MON trcstat_ptracer46_max        =   1.2225818010261173E-01
(PID.TID 0000.0001) %MON trcstat_ptracer46_min        =  7.0773695443169153E-118
(PID.TID 0000.0001) %MON trcstat_ptracer46_mean       =   1.7801667206249288E-03
(PID.TID 0000.0001) %MON trcstat_ptracer46_sd         =   1.4425476032589970E-02
(PID.TID 0000.0001) %MON trcstat_ptracer46_del2       =   0.0000000000000000E+00
(PID.TID 0000.0001) %MON trcstat_ptracer47_max        =   1.2225758053023594E-01
(PID.TID 0000.0001) %MON trcstat_ptracer47_min        =  1.5742494599230589E-117
(PID.TID 0000.0001) %MON trcstat_ptracer47_mean       =   1.7801808813654235E-03
(PID.TID 0000.0001) %MON trcstat_ptracer47_sd         =   1.4421345486431803E-02
(PID.TID 0000.0001) %MON trcstat_ptracer47_del2       =   0.0000000000000000E+00
(PID.TID 0000.0001) %MON trcstat_ptracer48_max        =   1.2225646039693593E-01
(PID.TID 0000.0001) %MON trcstat_ptracer48_min        =  3.5118883952966513E-117
(PID.TID 0000.0001) %MON trcstat_ptracer48_mean       =   1.7801992690286413E-03
(PID.TID 0000.0001) %MON trcstat_ptracer48_sd         =   1.4415950252342703E-02
(PID.TID 0000.0001) %MON trcstat_ptracer48_del2       =   0.0000000000000000E+00
(PID.TID 0000.0001) %MON trcstat_ptracer49_max        =   1.4875257484475737E-01
(PID.TID 0000.0001) %MON trcstat_ptracer49_min        =  8.9484003352299959E-121
(PID.TID 0000.0001) %MON trcstat_ptracer49_mean       =   2.1593707550111568E-03
(PID.TID 0000.0001) %MON trcstat_ptracer49_sd         =   1.7544419658426905E-02
(PID.TID 0000.0001) %MON trcstat_ptracer49_del2       =   0.0000000000000000E+00
(PID.TID 0000.0001) %MON trcstat_ptracer50_max        =   1.0384624620670315E-05
(PID.TID 0000.0001) %MON trcstat_ptracer50_min        =  7.1409921356951380E-125
(PID.TID 0000.0001) %MON trcstat_ptracer50_mean       =   1.5103643776025455E-07
(PID.TID 0000.0001) %MON trcstat_ptracer50_sd         =   1.2251197605820521E-06
(PID.TID 0000.0001) %MON trcstat_ptracer50_del2       =   0.0000000000000000E+00
(PID.TID 0000.0001) %MON trcstat_ptracer51_max        =   1.0178653259276088E-05
(PID.TID 0000.0001) %MON trcstat_ptracer51_min        =  7.4882559582675391E-125
(PID.TID 0000.0001) %MON trcstat_ptracer51_mean       =   1.4805273125367362E-07
(PID.TID 0000.0001) %MON trcstat_ptracer51_sd         =   1.2008931166285470E-06
(PID.TID 0000.0001) %MON trcstat_ptracer51_del2       =   0.0000000000000000E+00
(PID.TID 0000.0001) %MON trcstat_ptracer52_max        =   1.0003464799679287E-05
(PID.TID 0000.0001) %MON trcstat_ptracer52_min        =  8.1611100878114614E-125
(PID.TID 0000.0001) %MON trcstat_ptracer52_mean       =   1.4551772406259467E-07
(PID.TID 0000.0001) %MON trcstat_ptracer52_sd         =   1.1803062492510123E-06
(PID.TID 0000.0001) %MON trcstat_ptracer52_del2       =   0.0000000000000000E+00
(PID.TID 0000.0001) %MON trcstat_ptracer53_max        =   9.8553815062692093E-06
(PID.TID 0000.0001) %MON trcstat_ptracer53_min        =  9.5004157051031058E-125
(PID.TID 0000.0001) %MON trcstat_ptracer53_mean       =   1.4337892407164717E-07
(PID.TID 0000.0001) %MON trcstat_ptracer53_sd         =   1.1629317564998044E-06
(PID.TID 0000.0001) %MON trcstat_ptracer53_del2       =   0.0000000000000000E+00
(PID.TID 0000.0001) %MON trcstat_ptracer54_max        =   9.7307912328723970E-06
(PID.TID 0000.0001) %MON trcstat_ptracer54_min        =  1.2229347501990266E-124
(PID.TID 0000.0001) %MON trcstat_ptracer54_mean       =   1.4158456896814633E-07
(PID.TID 0000.0001) %MON trcstat_ptracer54_sd         =   1.1483480413513361E-06
(PID.TID 0000.0001) %MON trcstat_ptracer54_del2       =   0.0000000000000000E+00
(PID.TID 0000.0001) %MON trcstat_ptracer55_max        =   9.6262790953253900E-06
(PID.TID 0000.0001) %MON trcstat_ptracer55_min        =  1.7901059658597285E-124
(PID.TID 0000.0001) %MON trcstat_ptracer55_mean       =   1.4008622633616760E-07
(PID.TID 0000.0001) %MON trcstat_ptracer55_sd         =   1.1361602467654294E-06
(PID.TID 0000.0001) %MON trcstat_ptracer55_del2       =   0.0000000000000000E+00
(PID.TID 0000.0001) %MON trcstat_ptracer56_max        =   9.5387432112774084E-06
(PID.TID 0000.0001) %MON trcstat_ptracer56_min        =  2.9884636701543338E-124
(PID.TID 0000.0001) %MON trcstat_ptracer56_mean       =   1.3884023726536246E-07
(PID.TID 0000.0001) %MON trcstat_ptracer56_sd         =   1.1260118483631242E-06
(PID.TID 0000.0001) %MON trcstat_ptracer56_del2       =   0.0000000000000000E+00
(PID.TID 0000.0001) %MON trcstat_ptracer57_max        =   9.4654052487537861E-06
(PID.TID 0000.0001) %MON trcstat_ptracer57_min        =  5.5547049722584574E-124
(PID.TID 0000.0001) %MON trcstat_ptracer57_mean       =   1.3780812348863368E-07
(PID.TID 0000.0001) %MON trcstat_ptracer57_sd         =   1.1175877753812185E-06
(PID.TID 0000.0001) %MON trcstat_ptracer57_del2       =   0.0000000000000000E+00
(PID.TID 0000.0001) %MON trcstat_ptracer58_max        =   9.4062248447686051E-06
(PID.TID 0000.0001) %MON trcstat_ptracer58_min        =  1.1110020134906931E-123
(PID.TID 0000.0001) %MON trcstat_ptracer58_mean       =   1.3695652437995642E-07
(PID.TID 0000.0001) %MON trcstat_ptracer58_sd         =   1.1106136914219912E-06
(PID.TID 0000.0001) %MON trcstat_ptracer58_del2       =   0.0000000000000000E+00
(PID.TID 0000.0001) %MON trcstat_ptracer59_max        =   9.3187808715887559E-06
(PID.TID 0000.0001) %MON trcstat_ptracer59_min        =  4.9906167730917054E-123
(PID.TID 0000.0001) %MON trcstat_ptracer59_mean       =   1.3568470783354303E-07
(PID.TID 0000.0001) %MON trcstat_ptracer59_sd         =   1.1001014128154307E-06
(PID.TID 0000.0001) %MON trcstat_ptracer59_del2       =   0.0000000000000000E+00
(PID.TID 0000.0001) %MON trcstat_ptracer60_max        =   9.2870676214510490E-06
(PID.TID 0000.0001) %MON trcstat_ptracer60_min        =  1.0884058941837746E-122
(PID.TID 0000.0001) %MON trcstat_ptracer60_mean       =   1.3522369403719636E-07
(PID.TID 0000.0001) %MON trcstat_ptracer60_sd         =   1.0962185865232204E-06
(PID.TID 0000.0001) %MON trcstat_ptracer60_del2       =   0.0000000000000000E+00
(PID.TID 0000.0001) %MON trcstat_ptracer61_max        =   9.2614047647927295E-06
(PID.TID 0000.0001) %MON trcstat_ptracer61_min        =  2.3963029090743343E-122
(PID.TID 0000.0001) %MON trcstat_ptracer61_mean       =   1.3485097844157079E-07
(PID.TID 0000.0001) %MON trcstat_ptracer61_sd         =   1.0930082702729003E-06
(PID.TID 0000.0001) %MON trcstat_ptracer61_del2       =   0.0000000000000000E+00
(PID.TID 0000.0001) %MON trcstat_ptracer62_max        =   9.2407622844194292E-06
(PID.TID 0000.0001) %MON trcstat_ptracer62_min        =  5.3081559306853902E-122
(PID.TID 0000.0001) %MON trcstat_ptracer62_mean       =   1.3455169461508775E-07
(PID.TID 0000.0001) %MON trcstat_ptracer62_sd         =   1.0903364250220661E-06
(PID.TID 0000.0001) %MON trcstat_ptracer62_del2       =   0.0000000000000000E+00
(PID.TID 0000.0001) %MON trcstat_ptracer63_max        =   9.2242645459280478E-06
(PID.TID 0000.0001) %MON trcstat_ptracer63_min        =  1.1807050260007886E-121
(PID.TID 0000.0001) %MON trcstat_ptracer63_mean       =   1.3431329748491340E-07
(PID.TID 0000.0001) %MON trcstat_ptracer63_sd         =   1.0880838184050541E-06
(PID.TID 0000.0001) %MON trcstat_ptracer63_del2       =   0.0000000000000000E+00
(PID.TID 0000.0001) %MON trcstat_ptracer64_max        =   9.2111601887766216E-06
(PID.TID 0000.0001) %MON trcstat_ptracer64_min        =  2.6339421390076304E-121
(PID.TID 0000.0001) %MON trcstat_ptracer64_mean       =   1.3412517376593789E-07
(PID.TID 0000.0001) %MON trcstat_ptracer64_sd         =   1.0861417149500741E-06
(PID.TID 0000.0001) %MON trcstat_ptracer64_del2       =   0.0000000000000000E+00
(PID.TID 0000.0001) %MON trcstat_ptracer65_max        =   1.5705069947744340E-05
(PID.TID 0000.0001) %MON trcstat_ptracer65_min        =  6.7113170297150686E-125
(PID.TID 0000.0001) %MON trcstat_ptracer65_mean       =   2.2736479260909831E-07
(PID.TID 0000.0001) %MON trcstat_ptracer65_sd         =   1.8519310586232771E-06
(PID.TID 0000.0001) %MON trcstat_ptracer65_del2       =   0.0000000000000000E+00
(PID.TID 0000.0001) %MON trcstat_ptracer66_max        =   2.4678913965325372E-01
(PID.TID 0000.0001) %MON trcstat_ptracer66_min        =  1.0708394250227537E-120
(PID.TID 0000.0001) %MON trcstat_ptracer66_mean       =   3.2221481500566518E-03
(PID.TID 0000.0001) %MON trcstat_ptracer66_sd         =   2.6872271221916214E-02
(PID.TID 0000.0001) %MON trcstat_ptracer66_del2       =   0.0000000000000000E+00
(PID.TID 0000.0001) %MON trcstat_ptracer67_max        =   2.2078263028545042E-01
(PID.TID 0000.0001) %MON trcstat_ptracer67_min        =  1.1228044078048993E-120
(PID.TID 0000.0001) %MON trcstat_ptracer67_mean       =   2.9366065861685105E-03
(PID.TID 0000.0001) %MON trcstat_ptracer67_sd         =   2.4325974212951001E-02
(PID.TID 0000.0001) %MON trcstat_ptracer67_del2       =   0.0000000000000000E+00
(PID.TID 0000.0001) %MON trcstat_ptracer68_max        =   2.0020146289817520E-01
(PID.TID 0000.0001) %MON trcstat_ptracer68_min        =  1.2235594730765953E-120
[...]
(PID.TID 0000.0001) %MON trcstat_ptracer31_del2       =   0.0000000000000000E+00
(PID.TID 0000.0001) %MON trcstat_ptracer32_max        =   4.3634891553304528E-01
(PID.TID 0000.0001) %MON trcstat_ptracer32_min        =  3.4042249318946773E-101
(PID.TID 0000.0001) %MON trcstat_ptracer32_mean       =   9.8201553837965350E-03
(PID.TID 0000.0001) %MON trcstat_ptracer32_sd         =   6.1861700825533827E-02
(PID.TID 0000.0001) %MON trcstat_ptracer32_del2       =   0.0000000000000000E+00
(PID.TID 0000.0001) %MON trcstat_ptracer33_max        =   1.0412423888380620E+00
(PID.TID 0000.0001) %MON trcstat_ptracer33_min        =  5.3045140538508292E-110
(PID.TID 0000.0001) %MON trcstat_ptracer33_mean       =   2.3032494028324742E-02
(PID.TID 0000.0001) %MON trcstat_ptracer33_sd         =   1.4574873206038683E-01
(PID.TID 0000.0001) %MON trcstat_ptracer33_del2       =   0.0000000000000000E+00
(PID.TID 0000.0001) %MON trcstat_ptracer34_max        =   1.0634024937039084E-01
(PID.TID 0000.0001) %MON trcstat_ptracer34_min        =  3.3334701220317792E-110
(PID.TID 0000.0001) %MON trcstat_ptracer34_mean       =   2.3741743964632938E-03
(PID.TID 0000.0001) %MON trcstat_ptracer34_sd         =   1.4975671035180469E-02
(PID.TID 0000.0001) %MON trcstat_ptracer34_del2       =   0.0000000000000000E+00
(PID.TID 0000.0001) %MON trcstat_ptracer35_max        =   9.7767898823188079E-02
(PID.TID 0000.0001) %MON trcstat_ptracer35_min        =  4.7702251939701181E-110
(PID.TID 0000.0001) %MON trcstat_ptracer35_mean       =   2.1837031938537186E-03
(PID.TID 0000.0001) %MON trcstat_ptracer35_sd         =   1.3773330592386439E-02
(PID.TID 0000.0001) %MON trcstat_ptracer35_del2       =   0.0000000000000000E+00
(PID.TID 0000.0001) %MON trcstat_ptracer36_max        =   8.9984939765208008E-02
(PID.TID 0000.0001) %MON trcstat_ptracer36_min        =  7.5303495700362194E-110
(PID.TID 0000.0001) %MON trcstat_ptracer36_mean       =   2.0104520964169502E-03
(PID.TID 0000.0001) %MON trcstat_ptracer36_sd         =   1.2679989044623623E-02
(PID.TID 0000.0001) %MON trcstat_ptracer36_del2       =   0.0000000000000000E+00
(PID.TID 0000.0001) %MON trcstat_ptracer37_max        =   8.3109304229952746E-02
(PID.TID 0000.0001) %MON trcstat_ptracer37_min        =  1.3254187709512401E-109
(PID.TID 0000.0001) %MON trcstat_ptracer37_mean       =   1.8572650772437031E-03
(PID.TID 0000.0001) %MON trcstat_ptracer37_sd         =   1.1713435995517784E-02
(PID.TID 0000.0001) %MON trcstat_ptracer37_del2       =   0.0000000000000000E+00
(PID.TID 0000.0001) %MON trcstat_ptracer38_max        =   7.7185603433766278E-02
(PID.TID 0000.0001) %MON trcstat_ptracer38_min        =  2.6398499936926682E-109
(PID.TID 0000.0001) %MON trcstat_ptracer38_mean       =   1.7252262772430805E-03
(PID.TID 0000.0001) %MON trcstat_ptracer38_sd         =   1.0880395501759000E-02
(PID.TID 0000.0001) %MON trcstat_ptracer38_del2       =   0.0000000000000000E+00
(PID.TID 0000.0001) %MON trcstat_ptracer39_max        =   7.2189049761302443E-02
(PID.TID 0000.0001) %MON trcstat_ptracer39_min        =  6.0656224759567640E-109
(PID.TID 0000.0001) %MON trcstat_ptracer39_mean       =   1.6138676126238125E-03
(PID.TID 0000.0001) %MON trcstat_ptracer39_sd         =   1.0177828025600164E-02
(PID.TID 0000.0001) %MON trcstat_ptracer39_del2       =   0.0000000000000000E+00
(PID.TID 0000.0001) %MON trcstat_ptracer40_max        =   6.8050675679827005E-02
(PID.TID 0000.0001) %MON trcstat_ptracer40_min        =  1.6332929104796006E-108
(PID.TID 0000.0001) %MON trcstat_ptracer40_mean       =   1.5217161972585283E-03
(PID.TID 0000.0001) %MON trcstat_ptracer40_sd         =   9.5963848267882658E-03
(PID.TID 0000.0001) %MON trcstat_ptracer40_del2       =   0.0000000000000000E+00
(PID.TID 0000.0001) %MON trcstat_ptracer41_max        =   6.4680840291518577E-02
(PID.TID 0000.0001) %MON trcstat_ptracer41_min        =  5.1487490966747860E-108
(PID.TID 0000.0001) %MON trcstat_ptracer41_mean       =   1.4468070066896515E-03
(PID.TID 0000.0001) %MON trcstat_ptracer41_sd         =   9.1236339199962345E-03
(PID.TID 0000.0001) %MON trcstat_ptracer41_del2       =   0.0000000000000000E+00
(PID.TID 0000.0001) %MON trcstat_ptracer42_max        =   6.1980317461810319E-02
(PID.TID 0000.0001) %MON trcstat_ptracer42_min        =  1.8591518093362459E-107
(PID.TID 0000.0001) %MON trcstat_ptracer42_mean       =   1.3869595777810956E-03
(PID.TID 0000.0001) %MON trcstat_ptracer42_sd         =   8.7457938506927263E-03
(PID.TID 0000.0001) %MON trcstat_ptracer42_del2       =   0.0000000000000000E+00
(PID.TID 0000.0001) %MON trcstat_ptracer43_max        =   5.8208459739651497E-02
(PID.TID 0000.0001) %MON trcstat_ptracer43_min        =  3.2259010783193932E-106
(PID.TID 0000.0001) %MON trcstat_ptracer43_mean       =   1.3041536912818778E-03
(PID.TID 0000.0001) %MON trcstat_ptracer43_sd         =   8.2224023177943275E-03
(PID.TID 0000.0001) %MON trcstat_ptracer43_del2       =   0.0000000000000000E+00
(PID.TID 0000.0001) %MON trcstat_ptracer44_max        =   5.8144072261706529E-02
(PID.TID 0000.0001) %MON trcstat_ptracer44_min        =  1.5077773828254710E-105
(PID.TID 0000.0001) %MON trcstat_ptracer44_mean       =   1.3040215541879402E-03
(PID.TID 0000.0001) %MON trcstat_ptracer44_sd         =   8.2206739050016200E-03
(PID.TID 0000.0001) %MON trcstat_ptracer44_del2       =   0.0000000000000000E+00
(PID.TID 0000.0001) %MON trcstat_ptracer45_max        =   5.8079232888627930E-02
(PID.TID 0000.0001) %MON trcstat_ptracer45_min        =  7.6273738733117290E-105
(PID.TID 0000.0001) %MON trcstat_ptracer45_mean       =   1.3040578406655456E-03
(PID.TID 0000.0001) %MON trcstat_ptracer45_sd         =   8.2197878379035652E-03
(PID.TID 0000.0001) %MON trcstat_ptracer45_del2       =   0.0000000000000000E+00
(PID.TID 0000.0001) %MON trcstat_ptracer46_max        =   5.7994303757149243E-02
(PID.TID 0000.0001) %MON trcstat_ptracer46_min        =  4.5151602776362712E-104
(PID.TID 0000.0001) %MON trcstat_ptracer46_mean       =   1.3041047578726094E-03
(PID.TID 0000.0001) %MON trcstat_ptracer46_sd         =   8.2186245415343546E-03
(PID.TID 0000.0001) %MON trcstat_ptracer46_del2       =   0.0000000000000000E+00
(PID.TID 0000.0001) %MON trcstat_ptracer47_max        =   5.7883104392303486E-02
(PID.TID 0000.0001) %MON trcstat_ptracer47_min        =  3.6669392272084383E-103
(PID.TID 0000.0001) %MON trcstat_ptracer47_mean       =   1.3041655572536036E-03
(PID.TID 0000.0001) %MON trcstat_ptracer47_sd         =   8.2170989965751600E-03
(PID.TID 0000.0001) %MON trcstat_ptracer47_del2       =   0.0000000000000000E+00
(PID.TID 0000.0001) %MON trcstat_ptracer48_max        =   5.7848547085914741E-02
(PID.TID 0000.0001) %MON trcstat_ptracer48_min        =  4.5373657037578181E-102
(PID.TID 0000.0001) %MON trcstat_ptracer48_mean       =   1.3042444426180873E-03
(PID.TID 0000.0001) %MON trcstat_ptracer48_sd         =   8.2151003710072973E-03
(PID.TID 0000.0001) %MON trcstat_ptracer48_del2       =   0.0000000000000000E+00
(PID.TID 0000.0001) %MON trcstat_ptracer49_max        =   1.4077831850143221E-01
(PID.TID 0000.0001) %MON trcstat_ptracer49_min        =  7.3052260041963478E-111
(PID.TID 0000.0001) %MON trcstat_ptracer49_mean       =   3.1155322720194572E-03
(PID.TID 0000.0001) %MON trcstat_ptracer49_sd         =   1.9712740608184006E-02
(PID.TID 0000.0001) %MON trcstat_ptracer49_del2       =   0.0000000000000000E+00
(PID.TID 0000.0001) %MON trcstat_ptracer50_max        =   6.6497331011780207E-06
(PID.TID 0000.0001) %MON trcstat_ptracer50_min        =  1.9434713736778236E-114
(PID.TID 0000.0001) %MON trcstat_ptracer50_mean       =   1.4845754903837276E-07
(PID.TID 0000.0001) %MON trcstat_ptracer50_sd         =   9.3658180805949923E-07
(PID.TID 0000.0001) %MON trcstat_ptracer50_del2       =   0.0000000000000000E+00
(PID.TID 0000.0001) %MON trcstat_ptracer51_max        =   6.2952676998383826E-06
(PID.TID 0000.0001) %MON trcstat_ptracer51_min        =  2.8990223562076814E-114
(PID.TID 0000.0001) %MON trcstat_ptracer51_mean       =   1.4058039558866644E-07
(PID.TID 0000.0001) %MON trcstat_ptracer51_sd         =   8.8683085518350422E-07
(PID.TID 0000.0001) %MON trcstat_ptracer51_del2       =   0.0000000000000000E+00
(PID.TID 0000.0001) %MON trcstat_ptracer52_max        =   5.9813051436873058E-06
(PID.TID 0000.0001) %MON trcstat_ptracer52_min        =  4.7791477376436437E-114
(PID.TID 0000.0001) %MON trcstat_ptracer52_mean       =   1.3360277445701388E-07
(PID.TID 0000.0001) %MON trcstat_ptracer52_sd         =   8.4276316236809658E-07
(PID.TID 0000.0001) %MON trcstat_ptracer52_del2       =   0.0000000000000000E+00
(PID.TID 0000.0001) %MON trcstat_ptracer53_max        =   5.7071895610980584E-06
(PID.TID 0000.0001) %MON trcstat_ptracer53_min        =  8.7780247458582855E-114
(PID.TID 0000.0001) %MON trcstat_ptracer53_mean       =   1.2751077803083827E-07
(PID.TID 0000.0001) %MON trcstat_ptracer53_sd         =   8.0428982071029398E-07
(PID.TID 0000.0001) %MON trcstat_ptracer53_del2       =   0.0000000000000000E+00
(PID.TID 0000.0001) %MON trcstat_ptracer54_max        =   5.4707046594430804E-06
(PID.TID 0000.0001) %MON trcstat_ptracer54_min        =  1.8191518837687182E-113
(PID.TID 0000.0001) %MON trcstat_ptracer54_mean       =   1.2225750798826721E-07
(PID.TID 0000.0001) %MON trcstat_ptracer54_sd         =   7.7111286530170942E-07
(PID.TID 0000.0001) %MON trcstat_ptracer54_del2       =   0.0000000000000000E+00
(PID.TID 0000.0001) %MON trcstat_ptracer55_max        =   5.2686988944525143E-06
(PID.TID 0000.0001) %MON trcstat_ptracer55_min        =  4.3285152332412903E-113
(PID.TID 0000.0001) %MON trcstat_ptracer55_mean       =   1.1777509265873576E-07
(PID.TID 0000.0001) %MON trcstat_ptracer55_sd         =   7.4280189847745099E-07
(PID.TID 0000.0001) %MON trcstat_ptracer55_del2       =   0.0000000000000000E+00
(PID.TID 0000.0001) %MON trcstat_ptracer56_max        =   5.0976925990555716E-06
(PID.TID 0000.0001) %MON trcstat_ptracer56_min        =  1.1994254841877795E-112
(PID.TID 0000.0001) %MON trcstat_ptracer56_mean       =   1.1398695782263129E-07
(PID.TID 0000.0001) %MON trcstat_ptracer56_sd         =   7.1887190713676783E-07
(PID.TID 0000.0001) %MON trcstat_ptracer56_del2       =   0.0000000000000000E+00
(PID.TID 0000.0001) %MON trcstat_ptracer57_max        =   4.9539105959519029E-06
(PID.TID 0000.0001) %MON trcstat_ptracer57_min        =  3.8640508932520812E-112
(PID.TID 0000.0001) %MON trcstat_ptracer57_mean       =   1.1081156547796872E-07
(PID.TID 0000.0001) %MON trcstat_ptracer57_sd         =   6.9880612248658185E-07
(PID.TID 0000.0001) %MON trcstat_ptracer57_del2       =   0.0000000000000000E+00
(PID.TID 0000.0001) %MON trcstat_ptracer58_max        =   4.8337094110368124E-06
(PID.TID 0000.0001) %MON trcstat_ptracer58_min        =  1.4168534000521027E-111
(PID.TID 0000.0001) %MON trcstat_ptracer58_mean       =   1.0817014428057605E-07
(PID.TID 0000.0001) %MON trcstat_ptracer58_sd         =   6.8210518912326095E-07
(PID.TID 0000.0001) %MON trcstat_ptracer58_del2       =   0.0000000000000000E+00
(PID.TID 0000.0001) %MON trcstat_ptracer59_max        =   4.6506078455937984E-06
(PID.TID 0000.0001) %MON trcstat_ptracer59_min        =  2.4994681042724303E-110
(PID.TID 0000.0001) %MON trcstat_ptracer59_mean       =   1.0420255999169514E-07
(PID.TID 0000.0001) %MON trcstat_ptracer59_sd         =   6.5697804832126553E-07
(PID.TID 0000.0001) %MON trcstat_ptracer59_del2       =   0.0000000000000000E+00
(PID.TID 0000.0001) %MON trcstat_ptracer60_max        =   4.5860882377691411E-06
(PID.TID 0000.0001) %MON trcstat_ptracer60_min        =  1.1595630811115688E-109
(PID.TID 0000.0001) %MON trcstat_ptracer60_mean       =   1.0284792672491067E-07
(PID.TID 0000.0001) %MON trcstat_ptracer60_sd         =   6.4836884698297779E-07
(PID.TID 0000.0001) %MON trcstat_ptracer60_del2       =   0.0000000000000000E+00
(PID.TID 0000.0001) %MON trcstat_ptracer61_max        =   4.5319897373976637E-06
(PID.TID 0000.0001) %MON trcstat_ptracer61_min        =  5.8273253111008247E-109
(PID.TID 0000.0001) %MON trcstat_ptracer61_mean       =   1.0175197366046000E-07
(PID.TID 0000.0001) %MON trcstat_ptracer61_sd         =   6.4137178061845902E-07
(PID.TID 0000.0001) %MON trcstat_ptracer61_del2       =   0.0000000000000000E+00
(PID.TID 0000.0001) %MON trcstat_ptracer62_max        =   4.4860114931989799E-06
(PID.TID 0000.0001) %MON trcstat_ptracer62_min        =  3.4278561977832971E-108
(PID.TID 0000.0001) %MON trcstat_ptracer62_mean       =   1.0087157679383276E-07
(PID.TID 0000.0001) %MON trcstat_ptracer62_sd         =   6.3570871254507455E-07
(PID.TID 0000.0001) %MON trcstat_ptracer62_del2       =   0.0000000000000000E+00
(PID.TID 0000.0001) %MON trcstat_ptracer63_max        =   4.4460510716504617E-06
(PID.TID 0000.0001) %MON trcstat_ptracer63_min        =  2.7677341520161330E-107
(PID.TID 0000.0001) %MON trcstat_ptracer63_mean       =   1.0017038408802225E-07
(PID.TID 0000.0001) %MON trcstat_ptracer63_sd         =   6.3114242991439308E-07
(PID.TID 0000.0001) %MON trcstat_ptracer63_del2       =   0.0000000000000000E+00
(PID.TID 0000.0001) %MON trcstat_ptracer64_max        =   4.4184918556098314E-06
(PID.TID 0000.0001) %MON trcstat_ptracer64_min        =  3.4118606540684770E-106
(PID.TID 0000.0001) %MON trcstat_ptracer64_mean       =   9.9617540903236519E-08
(PID.TID 0000.0001) %MON trcstat_ptracer64_sd         =   6.2746800677221941E-07
(PID.TID 0000.0001) %MON trcstat_ptracer64_del2       =   0.0000000000000000E+00
(PID.TID 0000.0001) %MON trcstat_ptracer65_max        =   2.3795181627712146E-05
(PID.TID 0000.0001) %MON trcstat_ptracer65_min        =  1.0070043021174694E-114
(PID.TID 0000.0001) %MON trcstat_ptracer65_mean       =   5.2530157375044246E-07
(PID.TID 0000.0001) %MON trcstat_ptracer65_sd         =   3.3268444637042567E-06
(PID.TID 0000.0001) %MON trcstat_ptracer65_del2       =   0.0000000000000000E+00
(PID.TID 0000.0001) %MON trcstat_ptracer66_max        =   1.6554504131339187E-01
(PID.TID 0000.0001) %MON trcstat_ptracer66_min        =  4.4433710926802411E-110
(PID.TID 0000.0001) %MON trcstat_ptracer66_mean       =   3.5779822735175840E-03
(PID.TID 0000.0001) %MON trcstat_ptracer66_sd         =   2.2725181021506117E-02
(PID.TID 0000.0001) %MON trcstat_ptracer66_del2       =   0.0000000000000000E+00
(PID.TID 0000.0001) %MON trcstat_ptracer67_max        =   1.4814653965054883E-01
(PID.TID 0000.0001) %MON trcstat_ptracer67_min        =  6.1883196078631543E-110
(PID.TID 0000.0001) %MON trcstat_ptracer67_mean       =   3.2000313222781498E-03
(PID.TID 0000.0001) %MON trcstat_ptracer67_sd         =   2.0332417245294415E-02
(PID.TID 0000.0001) %MON trcstat_ptracer67_del2       =   0.0000000000000000E+00
(PID.TID 0000.0001) %MON trcstat_ptracer68_max        =   1.3281423035284540E-01
(PID.TID 0000.0001) %MON trcstat_ptracer68_min        =  9.5633510581602221E-110
(PID.TID 0000.0001) %MON trcstat_ptracer68_mean       =   2.8660533825325039E-03
(PID.TID 0000.0001) %MON trcstat_ptracer68_sd         =   1.8210700222412710E-02
(PID.TID 0000.0001) %MON trcstat_ptracer68_del2       =   0.0000000000000000E+00
(PID.TID 0000.0001) %MON trcstat_ptracer69_max        =   1.1832989990616670E-01
(PID.TID 0000.0001) %MON trcstat_ptracer69_min        =  1.6471549559222807E-109
(PID.TID 0000.0001) %MON trcstat_ptracer69_mean       =   2.5591161429984370E-03
(PID.TID 0000.0001) %MON trcstat_ptracer69_sd         =   1.6253184600168571E-02
(PID.TID 0000.0001) %MON trcstat_ptracer69_del2       =   0.0000000000000000E+00
(PID.TID 0000.0001) %MON trcstat_ptracer70_max        =   1.0579216077419187E-01
(PID.TID 0000.0001) %MON trcstat_ptracer70_min        =  3.2198392803008067E-109
(PID.TID 0000.0001) %MON trcstat_ptracer70_mean       =   2.2958698735659521E-03
(PID.TID 0000.0001) %MON trcstat_ptracer70_sd         =   1.4569816806462119E-02
(PID.TID 0000.0001) %MON trcstat_ptracer70_del2       =   0.0000000000000000E+00
(PID.TID 0000.0001) %MON trcstat_ptracer71_max        =   9.5444476422657826E-02
(PID.TID 0000.0001) %MON trcstat_ptracer71_min        =  7.2853047768001298E-109
(PID.TID 0000.0001) %MON trcstat_ptracer71_mean       =   2.0783511328065396E-03
(PID.TID 0000.0001) %MON trcstat_ptracer71_sd         =   1.3176340419255190E-02
(PID.TID 0000.0001) %MON trcstat_ptracer71_del2       =   0.0000000000000000E+00
(PID.TID 0000.0001) %MON trcstat_ptracer72_max        =   8.6569785266629243E-02
(PID.TID 0000.0001) %MON trcstat_ptracer72_min        =  1.9318730745037677E-108
(PID.TID 0000.0001) %MON trcstat_ptracer72_mean       =   1.8953455977598758E-03
(PID.TID 0000.0001) %MON trcstat_ptracer72_sd         =   1.2002013732130895E-02
(PID.TID 0000.0001) %MON trcstat_ptracer72_del2       =   0.0000000000000000E+00
(PID.TID 0000.0001) %MON trcstat_ptracer73_max        =   7.9343068800136890E-02
(PID.TID 0000.0001) %MON trcstat_ptracer73_min        =  6.0021275248112035E-108
(PID.TID 0000.0001) %MON trcstat_ptracer73_mean       =   1.7472988689596651E-03
(PID.TID 0000.0001) %MON trcstat_ptracer73_sd         =   1.1051148728505168E-02
(PID.TID 0000.0001) %MON trcstat_ptracer73_del2       =   0.0000000000000000E+00
(PID.TID 0000.0001) %MON trcstat_ptracer74_max        =   7.3557194613021473E-02
(PID.TID 0000.0001) %MON trcstat_ptracer74_min        =  2.1379965341626466E-107
(PID.TID 0000.0001) %MON trcstat_ptracer74_mean       =   1.6295230385337904E-03
(PID.TID 0000.0001) %MON trcstat_ptracer74_sd         =   1.0294281575105155E-02
(PID.TID 0000.0001) %MON trcstat_ptracer74_del2       =   0.0000000000000000E+00
(PID.TID 0000.0001) %MON trcstat_ptracer75_max        =   6.5505930355504338E-02
(PID.TID 0000.0001) %MON trcstat_ptracer75_min        =  3.6291867646584670E-106
(PID.TID 0000.0001) %MON trcstat_ptracer75_mean       =   1.4673773533452452E-03
(PID.TID 0000.0001) %MON trcstat_ptracer75_sd         =   9.2515856371670341E-03
(PID.TID 0000.0001) %MON trcstat_ptracer75_del2       =   0.0000000000000000E+00
(PID.TID 0000.0001) %MON trcstat_ptracer76_max        =   6.5412244825031954E-02
(PID.TID 0000.0001) %MON trcstat_ptracer76_min        =  1.6962537963131465E-105
(PID.TID 0000.0001) %MON trcstat_ptracer76_mean       =   1.4670279160312234E-03
(PID.TID 0000.0001) %MON trcstat_ptracer76_sd         =   9.2482812638299862E-03
(PID.TID 0000.0001) %MON trcstat_ptracer76_del2       =   0.0000000000000000E+00
(PID.TID 0000.0001) %MON trcstat_ptracer77_max        =   6.5339300347957319E-02
(PID.TID 0000.0001) %MON trcstat_ptracer77_min        =  8.5808170595183373E-105
(PID.TID 0000.0001) %MON trcstat_ptracer77_mean       =   1.4670687384205849E-03
(PID.TID 0000.0001) %MON trcstat_ptracer77_sd         =   9.2472844358526037E-03
(PID.TID 0000.0001) %MON trcstat_ptracer77_del2       =   0.0000000000000000E+00
(PID.TID 0000.0001) %MON trcstat_ptracer78_max        =   6.5243754836179987E-02
(PID.TID 0000.0001) %MON trcstat_ptracer78_min        =  5.0795680112608347E-104
(PID.TID 0000.0001) %MON trcstat_ptracer78_mean       =   1.4671215204104865E-03
(PID.TID 0000.0001) %MON trcstat_ptracer78_sd         =   9.2459757241654533E-03
(PID.TID 0000.0001) %MON trcstat_ptracer78_del2       =   0.0000000000000000E+00
(PID.TID 0000.0001) %MON trcstat_ptracer79_max        =   6.5118655237979578E-02
(PID.TID 0000.0001) %MON trcstat_ptracer79_min        =  4.1253169439018546E-103
(PID.TID 0000.0001) %MON trcstat_ptracer79_mean       =   1.4671899198851043E-03
(PID.TID 0000.0001) %MON trcstat_ptracer79_sd         =   9.2442594817957677E-03
(PID.TID 0000.0001) %MON trcstat_ptracer79_del2       =   0.0000000000000000E+00
(PID.TID 0000.0001) %MON trcstat_ptracer80_max        =   6.5079778171099542E-02
(PID.TID 0000.0001) %MON trcstat_ptracer80_min        =  5.1045491781004890E-102
(PID.TID 0000.0001) %MON trcstat_ptracer80_mean       =   1.4672786661420142E-03
(PID.TID 0000.0001) %MON trcstat_ptracer80_sd         =   9.2420110224107673E-03
(PID.TID 0000.0001) %MON trcstat_ptracer80_del2       =   0.0000000000000000E+00
