(PID.TID 0000.0001) %MON XC_max                       =   5.0000000000000000E-01
(PID.TID 0000.0001) %MON XC_min                       =   5.0000000000000000E-01
(PID.TID 0000.0001) %MON XC_mean                      =   5.0000000000000000E-01
(PID.TID 0000.0001) %MON XC_sd                        =   0.0000000000000000E+00
(PID.TID 0000.0001) %MON XG_max                       =   0.0000000000000000E+00
(PID.TID 0000.0001) %MON XG_min                       =   0.0000000000000000E+00
(PID.TID 0000.0001) %MON XG_mean                      =   0.0000000000000000E+00
(PID.TID 0000.0001) %MON XG_sd                        =   0.0000000000000000E+00
(PID.TID 0000.0001) %MON DXC_max                      =   7.9297382804168723E+04
(PID.TID 0000.0001) %MON DXC_min                      =   7.9297382804168723E+04
(PID.TID 0000.0001) %MON DXC_mean                     =   7.9297382804168723E+04
(PID.TID 0000.0001) %MON DXC_sd                       =   0.0000000000000000E+00
(PID.TID 0000.0001) %MON DXF_max                      =   7.9297382804168723E+04
(PID.TID 0000.0001) %MON DXF_min                      =   7.9297382804168723E+04
(PID.TID 0000.0001) %MON DXF_mean                     =   7.9297382804168723E+04
(PID.TID 0000.0001) %MON DXF_sd                       =   0.0000000000000000E+00
(PID.TID 0000.0001) %MON DXG_max                      =   7.8614345322413312E+04
(PID.TID 0000.0001) %MON DXG_min                      =   7.8614345322413312E+04
(PID.TID 0000.0001) %MON DXG_mean                     =   7.8614345322413312E+04
(PID.TID 0000.0001) %MON DXG_sd                       =   0.0000000000000000E+00
(PID.TID 0000.0001) %MON DXV_max                      =   7.8614345322413312E+04
(PID.TID 0000.0001) %MON DXV_min                      =   7.8614345322413312E+04
(PID.TID 0000.0001) %MON DXV_mean                     =   7.8614345322413312E+04
(PID.TID 0000.0001) %MON DXV_sd                       =   0.0000000000000000E+00
(PID.TID 0000.0001) %MON YC_max                       =  -4.4500000000000000E+01
(PID.TID 0000.0001) %MON YC_min                       =  -4.4500000000000000E+01
(PID.TID 0000.0001) %MON YC_mean                      =  -4.4500000000000000E+01
(PID.TID 0000.0001) %MON YC_sd                        =   0.0000000000000000E+00
(PID.TID 0000.0001) %MON YG_max                       =  -4.5000000000000000E+01
(PID.TID 0000.0001) %MON YG_min                       =  -4.5000000000000000E+01
(PID.TID 0000.0001) %MON YG_mean                      =  -4.5000000000000000E+01
(PID.TID 0000.0001) %MON YG_sd                        =   0.0000000000000000E+00
(PID.TID 0000.0001) %MON DYC_max                      =   1.1117747335203880E+05
(PID.TID 0000.0001) %MON DYC_min                      =   1.1117747335203880E+05
(PID.TID 0000.0001) %MON DYC_mean                     =   1.1117747335203880E+05
(PID.TID 0000.0001) %MON DYC_sd                       =   0.0000000000000000E+00
(PID.TID 0000.0001) %MON DYF_max                      =   1.1117747335203880E+05
(PID.TID 0000.0001) %MON DYF_min                      =   1.1117747335203880E+05
(PID.TID 0000.0001) %MON DYF_mean                     =   1.1117747335203880E+05
(PID.TID 0000.0001) %MON DYF_sd                       =   0.0000000000000000E+00
(PID.TID 0000.0001) %MON DYG_max                      =   1.1117747335203880E+05
(PID.TID 0000.0001) %MON DYG_min                      =   1.1117747335203880E+05
(PID.TID 0000.0001) %MON DYG_mean                     =   1.1117747335203880E+05
(PID.TID 0000.0001) %MON DYG_sd                       =   0.0000000000000000E+00
(PID.TID 0000.0001) %MON DYU_max                      =   1.1117747335203880E+05
(PID.TID 0000.0001) %MON DYU_min                      =   1.1117747335203880E+05
(PID.TID 0000.0001) %MON DYU_mean                     =   1.1117747335203880E+05
(PID.TID 0000.0001) %MON DYU_sd                       =   0.0000000000000000E+00
(PID.TID 0000.0001) %MON RA_max                       =   8.8159707668415375E+09
(PID.TID 0000.0001) %MON RA_min                       =   8.8159707668415375E+09
(PID.TID 0000.0001) %MON RA_mean                      =   8.8159707668415375E+09
(PID.TID 0000.0001) %MON RA_sd                        =   0.0000000000000000E+00
(PID.TID 0000.0001) %MON RAW_max                      =   8.8159707668415375E+09
(PID.TID 0000.0001) %MON RAW_min                      =   8.8159707668415375E+09
(PID.TID 0000.0001) %MON RAW_mean                     =   8.8159707668415375E+09
(PID.TID 0000.0001) %MON RAW_sd                       =   0.0000000000000000E+00
(PID.TID 0000.0001) %MON RAS_max                      =   8.7400333492513199E+09
(PID.TID 0000.0001) %MON RAS_min                      =   8.7400333492513199E+09
(PID.TID 0000.0001) %MON RAS_mean                     =   8.7400333492513199E+09
(PID.TID 0000.0001) %MON RAS_sd                       =   0.0000000000000000E+00
(PID.TID 0000.0001) %MON RAZ_max                      =   8.7400333492513199E+09
(PID.TID 0000.0001) %MON RAZ_min                      =   8.7400333492513199E+09
(PID.TID 0000.0001) %MON RAZ_mean                     =   8.7400333492513199E+09
(PID.TID 0000.0001) %MON RAZ_sd                       =   0.0000000000000000E+00
(PID.TID 0000.0001) %MON AngleCS_max                  =   1.0000000000000000E+00
(PID.TID 0000.0001) %MON AngleCS_min                  =   1.0000000000000000E+00
(PID.TID 0000.0001) %MON AngleCS_mean                 =   1.0000000000000000E+00
(PID.TID 0000.0001) %MON AngleCS_sd                   =   0.0000000000000000E+00
(PID.TID 0000.0001) %MON AngleSN_max                  =   0.0000000000000000E+00
(PID.TID 0000.0001) %MON AngleSN_min                  =   0.0000000000000000E+00
(PID.TID 0000.0001) %MON AngleSN_mean                 =   0.0000000000000000E+00
(PID.TID 0000.0001) %MON AngleSN_sd                   =   0.0000000000000000E+00
(PID.TID 0000.0001) %MON fCori_max                    =  -1.0222233858954729E-04
(PID.TID 0000.0001) %MON fCori_min                    =  -1.0222233858954729E-04
(PID.TID 0000.0001) %MON fCori_mean                   =  -1.0222233858954729E-04
(PID.TID 0000.0001) %MON fCori_sd                     =   0.0000000000000000E+00
(PID.TID 0000.0001) %MON fCoriG_max                   =  -1.0312619976227580E-04
(PID.TID 0000.0001) %MON fCoriG_min                   =  -1.0312619976227580E-04
(PID.TID 0000.0001) %MON fCoriG_mean                  =  -1.0312619976227580E-04
(PID.TID 0000.0001) %MON fCoriG_sd                    =   0.0000000000000000E+00
(PID.TID 0000.0001) %MON fCoriCos_max                 =   1.0402220747562310E-04
(PID.TID 0000.0001) %MON fCoriCos_min                 =   1.0402220747562310E-04
(PID.TID 0000.0001) %MON fCoriCos_mean                =   1.0402220747562310E-04
(PID.TID 0000.0001) %MON fCoriCos_sd                  =   0.0000000000000000E+00
(PID.TID 0000.0001) %MON time_tsnumber                =                     0
(PID.TID 0000.0001) %MON time_secondsf                =   0.0000000000000000E+00
(PID.TID 0000.0001) %MON dynstat_eta_max              =   0.0000000000000000E+00
(PID.TID 0000.0001) %MON dynstat_eta_min              =   0.0000000000000000E+00
(PID.TID 0000.0001) %MON dynstat_eta_mean             =   0.0000000000000000E+00
(PID.TID 0000.0001) %MON dynstat_eta_sd               =   0.0000000000000000E+00
(PID.TID 0000.0001) %MON dynstat_eta_del2             =   0.0000000000000000E+00
(PID.TID 0000.0001) %MON dynstat_uvel_max             =   0.0000000000000000E+00
(PID.TID 0000.0001) %MON dynstat_uvel_min             =   0.0000000000000000E+00
(PID.TID 0000.0001) %MON dynstat_uvel_mean            =   0.0000000000000000E+00
(PID.TID 0000.0001) %MON dynstat_uvel_sd              =   0.0000000000000000E+00
(PID.TID 0000.0001) %MON dynstat_uvel_del2            =   0.0000000000000000E+00
(PID.TID 0000.0001) %MON dynstat_vvel_max             =   0.0000000000000000E+00
(PID.TID 0000.0001) %MON dynstat_vvel_min             =   0.0000000000000000E+00
(PID.TID 0000.0001) %MON dynstat_vvel_mean            =   0.0000000000000000E+00
(PID.TID 0000.0001) %MON dynstat_vvel_sd              =   0.0000000000000000E+00
(PID.TID 0000.0001) %MON dynstat_vvel_del2            =   0.0000000000000000E+00
(PID.TID 0000.0001) %MON dynstat_wvel_max             =   0.0000000000000000E+00
(PID.TID 0000.0001) %MON dynstat_wvel_min             =   0.0000000000000000E+00
(PID.TID 0000.0001) %MON dynstat_wvel_mean            =   0.0000000000000000E+00
(PID.TID 0000.0001) %MON dynstat_wvel_sd              =   0.0000000000000000E+00
(PID.TID 0000.0001) %MON dynstat_wvel_del2            =   0.0000000000000000E+00
(PID.TID 0000.0001) %MON dynstat_theta_max            =   8.2977504730224609E+00
(PID.TID 0000.0001) %MON dynstat_theta_min            =   1.5167000293731689E+00
(PID.TID 0000.0001) %MON dynstat_theta_mean           =   2.8239317499687400E+00
(PID.TID 0000.0001) %MON dynstat_theta_sd             =   1.3644468593155439E+00
(PID.TID 0000.0001) %MON dynstat_theta_del2           =   0.0000000000000000E+00
(PID.TID 0000.0001) %MON dynstat_salt_max             =   3.5000000000000000E+01
(PID.TID 0000.0001) %MON dynstat_salt_min             =   3.5000000000000000E+01
(PID.TID 0000.0001) %MON dynstat_salt_mean            =   3.4999999999999986E+01
(PID.TID 0000.0001) %MON dynstat_salt_sd              =   1.4210854715202004E-14
(PID.TID 0000.0001) %MON dynstat_salt_del2            =   0.0000000000000000E+00
(PID.TID 0000.0001) %MON dynstat_sst_max              =   8.2959995269775391E+00
(PID.TID 0000.0001) %MON dynstat_sst_min              =   8.2959995269775391E+00
(PID.TID 0000.0001) %MON dynstat_sst_mean             =   8.2959995269775391E+00
(PID.TID 0000.0001) %MON dynstat_sst_sd               =   0.0000000000000000E+00
(PID.TID 0000.0001) %MON dynstat_sst_del2             =   0.0000000000000000E+00
(PID.TID 0000.0001) %MON dynstat_sss_max              =   3.5000000000000000E+01
(PID.TID 0000.0001) %MON dynstat_sss_min              =   3.5000000000000000E+01
(PID.TID 0000.0001) %MON dynstat_sss_mean             =   3.5000000000000000E+01
(PID.TID 0000.0001) %MON dynstat_sss_sd               =   0.0000000000000000E+00
(PID.TID 0000.0001) %MON dynstat_sss_del2             =   0.0000000000000000E+00
(PID.TID 0000.0001) %MON forcing_qnet_max             =   0.0000000000000000E+00
(PID.TID 0000.0001) %MON forcing_qnet_min             =   0.0000000000000000E+00
(PID.TID 0000.0001) %MON forcing_qnet_mean            =   0.0000000000000000E+00
(PID.TID 0000.0001) %MON forcing_qnet_sd              =   0.0000000000000000E+00
(PID.TID 0000.0001) %MON forcing_qnet_del2            =   0.0000000000000000E+00
(PID.TID 0000.0001) %MON forcing_qsw_max              =   0.0000000000000000E+00
(PID.TID 0000.0001) %MON forcing_qsw_min              =   0.0000000000000000E+00
(PID.TID 0000.0001) %MON forcing_qsw_mean             =   0.0000000000000000E+00
(PID.TID 0000.0001) %MON forcing_qsw_sd               =   0.0000000000000000E+00
(PID.TID 0000.0001) %MON forcing_qsw_del2             =   0.0000000000000000E+00
(PID.TID 0000.0001) %MON forcing_empmr_max            =   0.0000000000000000E+00
(PID.TID 0000.0001) %MON forcing_empmr_min            =   0.0000000000000000E+00
(PID.TID 0000.0001) %MON forcing_empmr_mean           =   0.0000000000000000E+00
(PID.TID 0000.0001) %MON forcing_empmr_sd             =   0.0000000000000000E+00
(PID.TID 0000.0001) %MON forcing_empmr_del2           =   0.0000000000000000E+00
(PID.TID 0000.0001) %MON forcing_fu_max               =   2.3210000991821289E+00
(PID.TID 0000.0001) %MON forcing_fu_min               =   2.3210000991821289E+00
(PID.TID 0000.0001) %MON forcing_fu_mean              =   2.3210000991821289E+00
(PID.TID 0000.0001) %MON forcing_fu_sd                =   0.0000000000000000E+00
(PID.TID 0000.0001) %MON forcing_fu_del2              =   0.0000000000000000E+00
(PID.TID 0000.0001) %MON forcing_fv_max               =  -4.5800000429153442E-01
(PID.TID 0000.0001) %MON forcing_fv_min               =  -4.5800000429153442E-01
(PID.TID 0000.0001) %MON forcing_fv_mean              =  -4.5800000429153448E-01
(PID.TID 0000.0001) %MON forcing_fv_sd                =   5.5511151231257827E-17
(PID.TID 0000.0001) %MON forcing_fv_del2              =   0.0000000000000000E+00
(PID.TID 0000.0001) %MON advcfl_uvel_max              =   0.0000000000000000E+00
(PID.TID 0000.0001) %MON advcfl_vvel_max              =   0.0000000000000000E+00
(PID.TID 0000.0001) %MON advcfl_wvel_max              =   0.0000000000000000E+00
(PID.TID 0000.0001) %MON advcfl_W_hf_max              =   0.0000000000000000E+00
(PID.TID 0000.0001) %MON pe_b_mean                    =   0.0000000000000000E+00
(PID.TID 0000.0001) %MON ke_max                       =   0.0000000000000000E+00
(PID.TID 0000.0001) %MON ke_mean                      =   0.0000000000000000E+00
(PID.TID 0000.0001) %MON ke_vol                       =   3.0811817830111180E+13
(PID.TID 0000.0001) %MON vort_r_min                   =   0.0000000000000000E+00
(PID.TID 0000.0001) %MON vort_r_max                   =   0.0000000000000000E+00
(PID.TID 0000.0001) %MON vort_a_mean                  =  -1.0312619976227577E-04
(PID.TID 0000.0001) %MON vort_a_sd                    =   2.8760747774580336E-12
(PID.TID 0000.0001) %MON vort_p_mean                  =  -1.0312619976227577E-04
(PID.TID 0000.0001) %MON vort_p_sd                    =   2.8760747774580336E-12
(PID.TID 0000.0001) %MON surfExpan_theta_mean         =   0.0000000000000000E+00
(PID.TID 0000.0001) %MON surfExpan_salt_mean          =   0.0000000000000000E+00
(PID.TID 0000.0001) %MON trcstat_ptracer01_max        =                      NAN
(PID.TID 0000.0001) %MON trcstat_ptracer01_min        =                      NAN
(PID.TID 0000.0001) %MON trcstat_ptracer01_mean       =                      NAN
(PID.TID 0000.0001) %MON trcstat_ptracer01_sd         =                      NAN
(PID.TID 0000.0001) %MON trcstat_ptracer01_del2       =                      NAN
(PID.TID 0000.0001) %MON trcstat_ptracer02_max        =   7.3161345720291138E-01
(PID.TID 0000.0001) %MON trcstat_ptracer02_min        =   5.2252426030463539E-06
(PID.TID 0000.0001) %MON trcstat_ptracer02_mean       =   2.1146586623550522E-02
(PID.TID 0000.0001) %MON trcstat_ptracer02_sd         =   1.1460123134912985E-01
(PID.TID 0000.0001) %MON trcstat_ptracer02_del2       =   0.0000000000000000E+00
(PID.TID 0000.0001) %MON trcstat_ptracer03_max        =   3.3000010251998901E-01
(PID.TID 0000.0001) %MON trcstat_ptracer03_min        =   1.1596751573961228E-04
(PID.TID 0000.0001) %MON trcstat_ptracer03_mean       =   2.6355158489910969E-02
(PID.TID 0000.0001) %MON trcstat_ptracer03_sd         =   6.2755794020604300E-02
(PID.TID 0000.0001) %MON trcstat_ptracer03_del2       =   0.0000000000000000E+00
(PID.TID 0000.0001) %MON trcstat_ptracer04_max        =   3.3950199127197266E+01
(PID.TID 0000.0001) %MON trcstat_ptracer04_min        =   1.6703975677490234E+01
(PID.TID 0000.0001) %MON trcstat_ptracer04_mean       =   3.0465642077728397E+01
(PID.TID 0000.0001) %MON trcstat_ptracer04_sd         =   3.3248084639155957E+00
(PID.TID 0000.0001) %MON trcstat_ptracer04_del2       =   0.0000000000000000E+00
(PID.TID 0000.0001) %MON trcstat_ptracer05_max        =   2.3152000904083252E+00
(PID.TID 0000.0001) %MON trcstat_ptracer05_min        =   1.0712499618530273E+00
(PID.TID 0000.0001) %MON trcstat_ptracer05_mean       =   2.0495008366643437E+00
(PID.TID 0000.0001) %MON trcstat_ptracer05_sd         =   2.5615688792220837E-01
(PID.TID 0000.0001) %MON trcstat_ptracer05_del2       =   0.0000000000000000E+00
(PID.TID 0000.0001) %MON trcstat_ptracer06_max        =   9.2368797302246094E+01
(PID.TID 0000.0001) %MON trcstat_ptracer06_min        =   3.8889998197555542E-01
(PID.TID 0000.0001) %MON trcstat_ptracer06_mean       =   6.0517938730372201E+01
(PID.TID 0000.0001) %MON trcstat_ptracer06_sd         =   2.7564406505864060E+01
(PID.TID 0000.0001) %MON trcstat_ptracer06_del2       =   0.0000000000000000E+00
(PID.TID 0000.0001) %MON trcstat_ptracer07_max        =   1.3000000035390258E-03
(PID.TID 0000.0001) %MON trcstat_ptracer07_min        =   1.3000000035390258E-03
(PID.TID 0000.0001) %MON trcstat_ptracer07_mean       =   1.3000000035390256E-03
(PID.TID 0000.0001) %MON trcstat_ptracer07_sd         =   2.1684043449710089E-19
(PID.TID 0000.0001) %MON trcstat_ptracer07_del2       =   0.0000000000000000E+00
(PID.TID 0000.0001) %MON trcstat_ptracer08_max        =   1.8351166248321533E+01
(PID.TID 0000.0001) %MON trcstat_ptracer08_min        =   0.0000000000000000E+00
(PID.TID 0000.0001) %MON trcstat_ptracer08_mean       =   7.4990786099406692E-01
(PID.TID 0000.0001) %MON trcstat_ptracer08_sd         =   3.0562222966443482E+00
(PID.TID 0000.0001) %MON trcstat_ptracer08_del2       =   0.0000000000000000E+00
(PID.TID 0000.0001) %MON trcstat_ptracer09_max        =   2.4468221664428711E+00
(PID.TID 0000.0001) %MON trcstat_ptracer09_min        =   0.0000000000000000E+00
(PID.TID 0000.0001) %MON trcstat_ptracer09_mean       =   9.9987714799208927E-02
(PID.TID 0000.0001) %MON trcstat_ptracer09_sd         =   4.0749630621924643E-01
(PID.TID 0000.0001) %MON trcstat_ptracer09_del2       =   0.0000000000000000E+00
(PID.TID 0000.0001) %MON trcstat_ptracer10_max        =   1.5292638540267944E-01
(PID.TID 0000.0001) %MON trcstat_ptracer10_min        =   0.0000000000000000E+00
(PID.TID 0000.0001) %MON trcstat_ptracer10_mean       =   6.2492321749505579E-03
(PID.TID 0000.0001) %MON trcstat_ptracer10_sd         =   2.5468519138702902E-02
(PID.TID 0000.0001) %MON trcstat_ptracer10_del2       =   0.0000000000000000E+00
(PID.TID 0000.0001) %MON trcstat_ptracer11_max        =   1.5292638272512704E-04
(PID.TID 0000.0001) %MON trcstat_ptracer11_min        =   0.0000000000000000E+00
(PID.TID 0000.0001) %MON trcstat_ptracer11_mean       =   6.2492321767615809E-06
(PID.TID 0000.0001) %MON trcstat_ptracer11_sd         =   2.5468519074562691E-05
(PID.TID 0000.0001) %MON trcstat_ptracer11_del2       =   0.0000000000000000E+00
(PID.TID 0000.0001) %MON trcstat_ptracer12_max        =   3.1860264390707016E+00
(PID.TID 0000.0001) %MON trcstat_ptracer12_min        =   3.9054635271895677E-03
(PID.TID 0000.0001) %MON trcstat_ptracer12_mean       =   5.6780167752647037E-01
(PID.TID 0000.0001) %MON trcstat_ptracer12_sd         =   9.2323417716229061E-01
(PID.TID 0000.0001) %MON trcstat_ptracer12_del2       =   0.0000000000000000E+00
(PID.TID 0000.0001) %MON trcstat_ptracer13_max        =   4.2480352520942688E-01
(PID.TID 0000.0001) %MON trcstat_ptracer13_min        =   5.2072847029194236E-04
(PID.TID 0000.0001) %MON trcstat_ptracer13_mean       =   7.5706890336862717E-02
(PID.TID 0000.0001) %MON trcstat_ptracer13_sd         =   1.2309789028830541E-01
(PID.TID 0000.0001) %MON trcstat_ptracer13_del2       =   0.0000000000000000E+00
(PID.TID 0000.0001) %MON trcstat_ptracer14_max        =   2.6550220325589180E-02
(PID.TID 0000.0001) %MON trcstat_ptracer14_min        =   3.2545529393246397E-05
(PID.TID 0000.0001) %MON trcstat_ptracer14_mean       =   4.7316806460539198E-03
(PID.TID 0000.0001) %MON trcstat_ptracer14_sd         =   7.6936181430190881E-03
(PID.TID 0000.0001) %MON trcstat_ptracer14_del2       =   0.0000000000000000E+00
(PID.TID 0000.0001) %MON trcstat_ptracer15_max        =   1.7408879648428410E-04
(PID.TID 0000.0001) %MON trcstat_ptracer15_min        =   1.3631536177616255E-10
(PID.TID 0000.0001) %MON trcstat_ptracer15_mean       =   8.0100022774682106E-05
(PID.TID 0000.0001) %MON trcstat_ptracer15_sd         =   6.8134860848991478E-05
(PID.TID 0000.0001) %MON trcstat_ptracer15_del2       =   0.0000000000000000E+00
(PID.TID 0000.0001) %MON trcstat_ptracer16_max        =   2.6550218535703607E-05
(PID.TID 0000.0001) %MON trcstat_ptracer16_min        =   3.2545532491212725E-08
(PID.TID 0000.0001) %MON trcstat_ptracer16_mean       =   4.7316805416602897E-06
(PID.TID 0000.0001) %MON trcstat_ptracer16_sd         =   7.6936179296091290E-06
(PID.TID 0000.0001) %MON trcstat_ptracer16_del2       =   0.0000000000000000E+00
(PID.TID 0000.0001) %MON trcstat_ptracer17_max        =                      NAN
(PID.TID 0000.0001) %MON trcstat_ptracer17_min        =                      NAN
(PID.TID 0000.0001) %MON trcstat_ptracer17_mean       =                      NAN
(PID.TID 0000.0001) %MON trcstat_ptracer17_sd         =                      NAN
(PID.TID 0000.0001) %MON trcstat_ptracer17_del2       =                      NAN
(PID.TID 0000.0001) %MON trcstat_ptracer18_max        =   6.7132097683497705E-04
(PID.TID 0000.0001) %MON trcstat_ptracer18_min        =   0.0000000000000000E+00
(PID.TID 0000.0001) %MON trcstat_ptracer18_mean       =   2.0654946074344777E-05
(PID.TID 0000.0001) %MON trcstat_ptracer18_sd         =   9.1096206219399613E-05
(PID.TID 0000.0001) %MON trcstat_ptracer18_del2       =   0.0000000000000000E+00
(PID.TID 0000.0001) %MON trcstat_ptracer19_max        =   6.7132097683497705E-04
(PID.TID 0000.0001) %MON trcstat_ptracer19_min        =   0.0000000000000000E+00
(PID.TID 0000.0001) %MON trcstat_ptracer19_mean       =   2.0654946074344777E-05
(PID.TID 0000.0001) %MON trcstat_ptracer19_sd         =   9.1096206219399613E-05
(PID.TID 0000.0001) %MON trcstat_ptracer19_del2       =   0.0000000000000000E+00
(PID.TID 0000.0001) %MON trcstat_ptracer20_max        =   6.7132097683497705E-04
(PID.TID 0000.0001) %MON trcstat_ptracer20_min        =   0.0000000000000000E+00
(PID.TID 0000.0001) %MON trcstat_ptracer20_mean       =   2.0654946074344777E-05
(PID.TID 0000.0001) %MON trcstat_ptracer20_sd         =   9.1096206219399613E-05
(PID.TID 0000.0001) %MON trcstat_ptracer20_del2       =   0.0000000000000000E+00
(PID.TID 0000.0001) %MON trcstat_ptracer21_max        =   6.7132097683497705E-04
(PID.TID 0000.0001) %MON trcstat_ptracer21_min        =   0.0000000000000000E+00
(PID.TID 0000.0001) %MON trcstat_ptracer21_mean       =   2.0654946074344777E-05
(PID.TID 0000.0001) %MON trcstat_ptracer21_sd         =   9.1096206219399613E-05
(PID.TID 0000.0001) %MON trcstat_ptracer21_del2       =   0.0000000000000000E+00
(PID.TID 0000.0001) %MON trcstat_ptracer22_max        =   6.7132097683497705E-04
(PID.TID 0000.0001) %MON trcstat_ptracer22_min        =   0.0000000000000000E+00
(PID.TID 0000.0001) %MON trcstat_ptracer22_mean       =   2.0654946074344777E-05
(PID.TID 0000.0001) %MON trcstat_ptracer22_sd         =   9.1096206219399613E-05
(PID.TID 0000.0001) %MON trcstat_ptracer22_del2       =   0.0000000000000000E+00
(PID.TID 0000.0001) %MON trcstat_ptracer23_max        =   6.7132097683497705E-04
(PID.TID 0000.0001) %MON trcstat_ptracer23_min        =   0.0000000000000000E+00
(PID.TID 0000.0001) %MON trcstat_ptracer23_mean       =   2.0654946074344777E-05
(PID.TID 0000.0001) %MON trcstat_ptracer23_sd         =   9.1096206219399613E-05
(PID.TID 0000.0001) %MON trcstat_ptracer23_del2       =   0.0000000000000000E+00
(PID.TID 0000.0001) %MON trcstat_ptracer24_max        =   6.7132097683497705E-04
(PID.TID 0000.0001) %MON trcstat_ptracer24_min        =   0.0000000000000000E+00
(PID.TID 0000.0001) %MON trcstat_ptracer24_mean       =   2.0654946074344777E-05
(PID.TID 0000.0001) %MON trcstat_ptracer24_sd         =   9.1096206219399613E-05
(PID.TID 0000.0001) %MON trcstat_ptracer24_del2       =   0.0000000000000000E+00
(PID.TID 0000.0001) %MON trcstat_ptracer25_max        =   6.7132097683497705E-04
(PID.TID 0000.0001) %MON trcstat_ptracer25_min        =   0.0000000000000000E+00
(PID.TID 0000.0001) %MON trcstat_ptracer25_mean       =   2.0654946074344777E-05
(PID.TID 0000.0001) %MON trcstat_ptracer25_sd         =   9.1096206219399613E-05
(PID.TID 0000.0001) %MON trcstat_ptracer25_del2       =   0.0000000000000000E+00
(PID.TID 0000.0001) %MON trcstat_ptracer26_max        =   6.7132097683497705E-04
(PID.TID 0000.0001) %MON trcstat_ptracer26_min        =   0.0000000000000000E+00
(PID.TID 0000.0001) %MON trcstat_ptracer26_mean       =   2.0654946074344777E-05
(PID.TID 0000.0001) %MON trcstat_ptracer26_sd         =   9.1096206219399613E-05
(PID.TID 0000.0001) %MON trcstat_ptracer26_del2       =   0.0000000000000000E+00
(PID.TID 0000.0001) %MON trcstat_ptracer27_max        =   2.8491763025522232E+00
(PID.TID 0000.0001) %MON trcstat_ptracer27_min        =   0.0000000000000000E+00
(PID.TID 0000.0001) %MON trcstat_ptracer27_mean       =   8.2688722730756156E-02
(PID.TID 0000.0001) %MON trcstat_ptracer27_sd         =   4.2584796438359918E-01
(PID.TID 0000.0001) %MON trcstat_ptracer27_del2       =   0.0000000000000000E+00
(PID.TID 0000.0001) %MON trcstat_ptracer28_max        =   2.8491763025522232E+00
(PID.TID 0000.0001) %MON trcstat_ptracer28_min        =   0.0000000000000000E+00
(PID.TID 0000.0001) %MON trcstat_ptracer28_mean       =   8.2688722730756156E-02
(PID.TID 0000.0001) %MON trcstat_ptracer28_sd         =   4.2584796438359918E-01
(PID.TID 0000.0001) %MON trcstat_ptracer28_del2       =   0.0000000000000000E+00
(PID.TID 0000.0001) %MON time_tsnumber                =                     1
(PID.TID 0000.0001) %MON time_secondsf                =   3.6000000000000000E+03
(PID.TID 0000.0001) %MON dynstat_eta_max              =   0.0000000000000000E+00
(PID.TID 0000.0001) %MON dynstat_eta_min              =   0.0000000000000000E+00
(PID.TID 0000.0001) %MON dynstat_eta_mean             =   0.0000000000000000E+00
(PID.TID 0000.0001) %MON dynstat_eta_sd               =   0.0000000000000000E+00
(PID.TID 0000.0001) %MON dynstat_eta_del2             =   0.0000000000000000E+00
(PID.TID 0000.0001) %MON dynstat_uvel_max             =   0.0000000000000000E+00
(PID.TID 0000.0001) %MON dynstat_uvel_min             =   0.0000000000000000E+00
(PID.TID 0000.0001) %MON dynstat_uvel_mean            =   0.0000000000000000E+00
(PID.TID 0000.0001) %MON dynstat_uvel_sd              =   0.0000000000000000E+00
(PID.TID 0000.0001) %MON dynstat_uvel_del2            =   0.0000000000000000E+00
(PID.TID 0000.0001) %MON dynstat_vvel_max             =   0.0000000000000000E+00
(PID.TID 0000.0001) %MON dynstat_vvel_min             =   0.0000000000000000E+00
(PID.TID 0000.0001) %MON dynstat_vvel_mean            =   0.0000000000000000E+00
(PID.TID 0000.0001) %MON dynstat_vvel_sd              =   0.0000000000000000E+00
(PID.TID 0000.0001) %MON dynstat_vvel_del2            =   0.0000000000000000E+00
(PID.TID 0000.0001) %MON dynstat_wvel_max             =   0.0000000000000000E+00
(PID.TID 0000.0001) %MON dynstat_wvel_min             =   0.0000000000000000E+00
(PID.TID 0000.0001) %MON dynstat_wvel_mean            =   0.0000000000000000E+00
(PID.TID 0000.0001) %MON dynstat_wvel_sd              =   0.0000000000000000E+00
(PID.TID 0000.0001) %MON dynstat_wvel_del2            =   0.0000000000000000E+00
(PID.TID 0000.0001) %MON dynstat_theta_max            =   8.2824962465671614E+00
(PID.TID 0000.0001) %MON dynstat_theta_min            =   1.5167006338840423E+00
(PID.TID 0000.0001) %MON dynstat_theta_mean           =   2.8239040467417342E+00
(PID.TID 0000.0001) %MON dynstat_theta_sd             =   1.3643285852844826E+00
(PID.TID 0000.0001) %MON dynstat_theta_del2           =   0.0000000000000000E+00
(PID.TID 0000.0001) %MON dynstat_salt_max             =   3.5000000000000000E+01
(PID.TID 0000.0001) %MON dynstat_salt_min             =   3.5000000000000000E+01
(PID.TID 0000.0001) %MON dynstat_salt_mean            =   3.4999999999999986E+01
(PID.TID 0000.0001) %MON dynstat_salt_sd              =   1.4210854715202004E-14
(PID.TID 0000.0001) %MON dynstat_salt_del2            =   0.0000000000000000E+00
(PID.TID 0000.0001) %MON dynstat_sst_max              =   8.2824962465671614E+00
(PID.TID 0000.0001) %MON dynstat_sst_min              =   8.2824962465671614E+00
(PID.TID 0000.0001) %MON dynstat_sst_mean             =   8.2824962465671614E+00
(PID.TID 0000.0001) %MON dynstat_sst_sd               =   0.0000000000000000E+00
(PID.TID 0000.0001) %MON dynstat_sst_del2             =   0.0000000000000000E+00
(PID.TID 0000.0001) %MON dynstat_sss_max              =   3.5000000000000000E+01
(PID.TID 0000.0001) %MON dynstat_sss_min              =   3.5000000000000000E+01
(PID.TID 0000.0001) %MON dynstat_sss_mean             =   3.5000000000000000E+01
(PID.TID 0000.0001) %MON dynstat_sss_sd               =   0.0000000000000000E+00
(PID.TID 0000.0001) %MON dynstat_sss_del2             =   0.0000000000000000E+00
(PID.TID 0000.0001) %MON forcing_qnet_max             =   0.0000000000000000E+00
(PID.TID 0000.0001) %MON forcing_qnet_min             =   0.0000000000000000E+00
(PID.TID 0000.0001) %MON forcing_qnet_mean            =   0.0000000000000000E+00
(PID.TID 0000.0001) %MON forcing_qnet_sd              =   0.0000000000000000E+00
(PID.TID 0000.0001) %MON forcing_qnet_del2            =   0.0000000000000000E+00
(PID.TID 0000.0001) %MON forcing_qsw_max              =   0.0000000000000000E+00
(PID.TID 0000.0001) %MON forcing_qsw_min              =   0.0000000000000000E+00
(PID.TID 0000.0001) %MON forcing_qsw_mean             =   0.0000000000000000E+00
(PID.TID 0000.0001) %MON forcing_qsw_sd               =   0.0000000000000000E+00
(PID.TID 0000.0001) %MON forcing_qsw_del2             =   0.0000000000000000E+00
(PID.TID 0000.0001) %MON forcing_empmr_max            =   0.0000000000000000E+00
(PID.TID 0000.0001) %MON forcing_empmr_min            =   0.0000000000000000E+00
(PID.TID 0000.0001) %MON forcing_empmr_mean           =   0.0000000000000000E+00
(PID.TID 0000.0001) %MON forcing_empmr_sd             =   0.0000000000000000E+00
(PID.TID 0000.0001) %MON forcing_empmr_del2           =   0.0000000000000000E+00
(PID.TID 0000.0001) %MON forcing_fu_max               =   2.2645000219345093E+00
(PID.TID 0000.0001) %MON forcing_fu_min               =   2.2645000219345093E+00
(PID.TID 0000.0001) %MON forcing_fu_mean              =   2.2645000219345093E+00
(PID.TID 0000.0001) %MON forcing_fu_sd                =   0.0000000000000000E+00
(PID.TID 0000.0001) %MON forcing_fu_del2              =   0.0000000000000000E+00
(PID.TID 0000.0001) %MON forcing_fv_max               =  -4.1300000250339508E-01
(PID.TID 0000.0001) %MON forcing_fv_min               =  -4.1300000250339508E-01
(PID.TID 0000.0001) %MON forcing_fv_mean              =  -4.1300000250339503E-01
(PID.TID 0000.0001) %MON forcing_fv_sd                =   5.5511151231257827E-17
(PID.TID 0000.0001) %MON forcing_fv_del2              =   0.0000000000000000E+00
(PID.TID 0000.0001) %MON advcfl_uvel_max              =   0.0000000000000000E+00
(PID.TID 0000.0001) %MON advcfl_vvel_max              =   0.0000000000000000E+00
(PID.TID 0000.0001) %MON advcfl_wvel_max              =   0.0000000000000000E+00
(PID.TID 0000.0001) %MON advcfl_W_hf_max              =   0.0000000000000000E+00
(PID.TID 0000.0001) %MON pe_b_mean                    =   0.0000000000000000E+00
(PID.TID 0000.0001) %MON ke_max                       =   0.0000000000000000E+00
(PID.TID 0000.0001) %MON ke_mean                      =   0.0000000000000000E+00
(PID.TID 0000.0001) %MON ke_vol                       =   3.0811817830111180E+13
(PID.TID 0000.0001) %MON vort_r_min                   =   0.0000000000000000E+00
(PID.TID 0000.0001) %MON vort_r_max                   =   0.0000000000000000E+00
(PID.TID 0000.0001) %MON vort_a_mean                  =  -1.0312619976227577E-04
(PID.TID 0000.0001) %MON vort_a_sd                    =   2.8760747774580336E-12
(PID.TID 0000.0001) %MON vort_p_mean                  =  -1.0312619976227577E-04
(PID.TID 0000.0001) %MON vort_p_sd                    =   2.8760747774580336E-12
(PID.TID 0000.0001) %MON surfExpan_theta_mean         =   0.0000000000000000E+00
(PID.TID 0000.0001) %MON surfExpan_salt_mean          =   0.0000000000000000E+00
(PID.TID 0000.0001) %MON trcstat_ptracer01_max        =                      NAN
(PID.TID 0000.0001) %MON trcstat_ptracer01_min        =                      NAN
(PID.TID 0000.0001) %MON trcstat_ptracer01_mean       =                      NAN
(PID.TID 0000.0001) %MON trcstat_ptracer01_sd         =                      NAN
(PID.TID 0000.0001) %MON trcstat_ptracer01_del2       =                      NAN
(PID.TID 0000.0001) %MON trcstat_ptracer02_max        =   7.3262824689335782E-01
(PID.TID 0000.0001) %MON trcstat_ptracer02_min        =   5.2237466059770898E-06
(PID.TID 0000.0001) %MON trcstat_ptracer02_mean       =   2.1156262137509086E-02
(PID.TID 0000.0001) %MON trcstat_ptracer02_sd         =   1.1475276227388585E-01
(PID.TID 0000.0001) %MON trcstat_ptracer02_del2       =   0.0000000000000000E+00
(PID.TID 0000.0001) %MON trcstat_ptracer03_max        =   3.3197409179551740E-01
(PID.TID 0000.0001) %MON trcstat_ptracer03_min        =   1.1591976312977867E-04
(PID.TID 0000.0001) %MON trcstat_ptracer03_mean       =   2.6378600790234432E-02
(PID.TID 0000.0001) %MON trcstat_ptracer03_sd         =   6.2845206364105149E-02
(PID.TID 0000.0001) %MON trcstat_ptracer03_del2       =   0.0000000000000000E+00
(PID.TID 0000.0001) %MON trcstat_ptracer04_max        =   3.3950225560835456E+01
(PID.TID 0000.0001) %MON trcstat_ptracer04_min        =   1.6715810225165217E+01
(PID.TID 0000.0001) %MON trcstat_ptracer04_mean       =   3.0465713514549950E+01
(PID.TID 0000.0001) %MON trcstat_ptracer04_sd         =   3.3246502928923176E+00
(PID.TID 0000.0001) %MON trcstat_ptracer04_del2       =   0.0000000000000000E+00
(PID.TID 0000.0001) %MON trcstat_ptracer05_max        =   2.3152009190731286E+00
(PID.TID 0000.0001) %MON trcstat_ptracer05_min        =   1.0808380663147574E+00
(PID.TID 0000.0001) %MON trcstat_ptracer05_mean       =   2.0495073682285572E+00
(PID.TID 0000.0001) %MON trcstat_ptracer05_sd         =   2.5614288638326260E-01
(PID.TID 0000.0001) %MON trcstat_ptracer05_del2       =   0.0000000000000000E+00
(PID.TID 0000.0001) %MON trcstat_ptracer06_max        =   9.2368795565334651E+01
(PID.TID 0000.0001) %MON trcstat_ptracer06_min        =   4.2813982701607972E-01
(PID.TID 0000.0001) %MON trcstat_ptracer06_mean       =   6.0517938721738140E+01
(PID.TID 0000.0001) %MON trcstat_ptracer06_sd         =   2.7564395034929944E+01
(PID.TID 0000.0001) %MON trcstat_ptracer06_del2       =   0.0000000000000000E+00
(PID.TID 0000.0001) %MON trcstat_ptracer07_max        =   1.3001958526102544E-03
(PID.TID 0000.0001) %MON trcstat_ptracer07_min        =   1.2999854197363186E-03
(PID.TID 0000.0001) %MON trcstat_ptracer07_mean       =   1.2999922462810566E-03
(PID.TID 0000.0001) %MON trcstat_ptracer07_sd         =   1.7180777426207248E-08
(PID.TID 0000.0001) %MON trcstat_ptracer07_del2       =   0.0000000000000000E+00
(PID.TID 0000.0001) %MON trcstat_ptracer08_max        =   1.8347808767100645E+01
(PID.TID 0000.0001) %MON trcstat_ptracer08_min        =   1.2831036355663991E-37
(PID.TID 0000.0001) %MON trcstat_ptracer08_mean       =   7.4972231328306738E-01
(PID.TID 0000.0001) %MON trcstat_ptracer08_sd         =   3.0555706765536721E+00
(PID.TID 0000.0001) %MON trcstat_ptracer08_del2       =   0.0000000000000000E+00
(PID.TID 0000.0001) %MON trcstat_ptracer09_max        =   2.4463755479149056E+00
(PID.TID 0000.0001) %MON trcstat_ptracer09_min        =   1.7108048474218653E-38
(PID.TID 0000.0001) %MON trcstat_ptracer09_mean       =   9.9963003992274646E-02
(PID.TID 0000.0001) %MON trcstat_ptracer09_sd         =   4.0740955417492181E-01
(PID.TID 0000.0001) %MON trcstat_ptracer09_del2       =   0.0000000000000000E+00
(PID.TID 0000.0001) %MON trcstat_ptracer10_max        =   1.5289840639250538E-01
(PID.TID 0000.0001) %MON trcstat_ptracer10_min        =   1.0692530296386658E-39
(PID.TID 0000.0001) %MON trcstat_ptracer10_mean       =   6.2476859440255611E-03
(PID.TID 0000.0001) %MON trcstat_ptracer10_sd         =   2.5463088971280599E-02
(PID.TID 0000.0001) %MON trcstat_ptracer10_del2       =   0.0000000000000000E+00
(PID.TID 0000.0001) %MON trcstat_ptracer11_max        =   1.5289966719036341E-04
(PID.TID 0000.0001) %MON trcstat_ptracer11_min        =   1.0692526930594289E-42
(PID.TID 0000.0001) %MON trcstat_ptracer11_mean       =   6.2477208520068908E-06
(PID.TID 0000.0001) %MON trcstat_ptracer11_sd         =   2.5463246757136659E-05
(PID.TID 0000.0001) %MON trcstat_ptracer11_del2       =   0.0000000000000000E+00
(PID.TID 0000.0001) %MON trcstat_ptracer12_max        =   3.1819262019199934E+00
(PID.TID 0000.0001) %MON trcstat_ptracer12_min        =   3.9076358834981813E-03
(PID.TID 0000.0001) %MON trcstat_ptracer12_mean       =   5.6743239867624418E-01
(PID.TID 0000.0001) %MON trcstat_ptracer12_sd         =   9.2236852567228811E-01
(PID.TID 0000.0001) %MON trcstat_ptracer12_del2       =   0.0000000000000000E+00
(PID.TID 0000.0001) %MON trcstat_ptracer13_max        =   4.2425688266102379E-01
(PID.TID 0000.0001) %MON trcstat_ptracer13_min        =   5.2101811779975752E-04
(PID.TID 0000.0001) %MON trcstat_ptracer13_mean       =   7.5657691252247597E-02
(PID.TID 0000.0001) %MON trcstat_ptracer13_sd         =   1.2298250511847270E-01
(PID.TID 0000.0001) %MON trcstat_ptracer13_del2       =   0.0000000000000000E+00
(PID.TID 0000.0001) %MON trcstat_ptracer14_max        =   2.6516051682666613E-02
(PID.TID 0000.0001) %MON trcstat_ptracer14_min        =   3.2563632362484845E-05
(PID.TID 0000.0001) %MON trcstat_ptracer14_mean       =   4.7286033223020345E-03
(PID.TID 0000.0001) %MON trcstat_ptracer14_sd         =   7.6864043806024011E-03
(PID.TID 0000.0001) %MON trcstat_ptracer14_del2       =   0.0000000000000000E+00
(PID.TID 0000.0001) %MON trcstat_ptracer15_max        =   1.7419840391270407E-04
(PID.TID 0000.0001) %MON trcstat_ptracer15_min        =   5.3875347786312450E-08
(PID.TID 0000.0001) %MON trcstat_ptracer15_mean       =   8.0107969851305478E-05
(PID.TID 0000.0001) %MON trcstat_ptracer15_sd         =   6.8124786570353257E-05
(PID.TID 0000.0001) %MON trcstat_ptracer15_del2       =   0.0000000000000000E+00
(PID.TID 0000.0001) %MON trcstat_ptracer16_max        =   2.6516117242982153E-05
(PID.TID 0000.0001) %MON trcstat_ptracer16_min        =   3.2563635457253173E-08
(PID.TID 0000.0001) %MON trcstat_ptracer16_mean       =   4.7286492499552568E-06
(PID.TID 0000.0001) %MON trcstat_ptracer16_sd         =   7.6864464980615028E-06
(PID.TID 0000.0001) %MON trcstat_ptracer16_del2       =   0.0000000000000000E+00
(PID.TID 0000.0001) %MON trcstat_ptracer17_max        =                      NAN
(PID.TID 0000.0001) %MON trcstat_ptracer17_min        =                      NAN
(PID.TID 0000.0001) %MON trcstat_ptracer17_mean       =                      NAN
(PID.TID 0000.0001) %MON trcstat_ptracer17_sd         =                      NAN
(PID.TID 0000.0001) %MON trcstat_ptracer17_del2       =                      NAN
(PID.TID 0000.0001) %MON trcstat_ptracer18_max        =   6.7188057380604068E-04
(PID.TID 0000.0001) %MON trcstat_ptracer18_min        =   9.1196905435076994E-71
(PID.TID 0000.0001) %MON trcstat_ptracer18_mean       =   2.0660098488369982E-05
(PID.TID 0000.0001) %MON trcstat_ptracer18_sd         =   9.1260029737369648E-05
(PID.TID 0000.0001) %MON trcstat_ptracer18_del2       =   0.0000000000000000E+00
(PID.TID 0000.0001) %MON trcstat_ptracer19_max        =   6.7890963212725993E-04
(PID.TID 0000.0001) %MON trcstat_ptracer19_min        =   9.1196905435076994E-71
(PID.TID 0000.0001) %MON trcstat_ptracer19_mean       =   2.0783630489805615E-05
(PID.TID 0000.0001) %MON trcstat_ptracer19_sd         =   9.2090439140095091E-05
(PID.TID 0000.0001) %MON trcstat_ptracer19_del2       =   0.0000000000000000E+00
(PID.TID 0000.0001) %MON trcstat_ptracer20_max        =   6.7711288756045743E-04
(PID.TID 0000.0001) %MON trcstat_ptracer20_min        =   3.1409096159126834E-73
(PID.TID 0000.0001) %MON trcstat_ptracer20_mean       =   2.0675700081346340E-05
(PID.TID 0000.0001) %MON trcstat_ptracer20_sd         =   9.1361250139416797E-05
(PID.TID 0000.0001) %MON trcstat_ptracer20_del2       =   0.0000000000000000E+00
(PID.TID 0000.0001) %MON trcstat_ptracer21_max        =   6.7722903333040680E-04
(PID.TID 0000.0001) %MON trcstat_ptracer21_min        =   3.1409096159126834E-73
(PID.TID 0000.0001) %MON trcstat_ptracer21_mean       =   2.0673457479992911E-05
(PID.TID 0000.0001) %MON trcstat_ptracer21_sd         =   9.1364192672140261E-05
(PID.TID 0000.0001) %MON trcstat_ptracer21_del2       =   0.0000000000000000E+00
(PID.TID 0000.0001) %MON trcstat_ptracer22_max        =   6.7752257774203852E-04
(PID.TID 0000.0001) %MON trcstat_ptracer22_min        =   3.1409096159126834E-73
(PID.TID 0000.0001) %MON trcstat_ptracer22_mean       =   2.0680875953545211E-05
(PID.TID 0000.0001) %MON trcstat_ptracer22_sd         =   9.1396385626832987E-05
(PID.TID 0000.0001) %MON trcstat_ptracer22_del2       =   0.0000000000000000E+00
(PID.TID 0000.0001) %MON trcstat_ptracer23_max        =   6.7502561373137832E-04
(PID.TID 0000.0001) %MON trcstat_ptracer23_min        =   9.1196905435076994E-71
(PID.TID 0000.0001) %MON trcstat_ptracer23_mean       =   2.0703585403302258E-05
(PID.TID 0000.0001) %MON trcstat_ptracer23_sd         =   9.1583979346969237E-05
(PID.TID 0000.0001) %MON trcstat_ptracer23_del2       =   0.0000000000000000E+00
(PID.TID 0000.0001) %MON trcstat_ptracer24_max        =   6.7498975523315886E-04
(PID.TID 0000.0001) %MON trcstat_ptracer24_min        =   3.1409096159126834E-73
(PID.TID 0000.0001) %MON trcstat_ptracer24_mean       =   2.0643453547155648E-05
(PID.TID 0000.0001) %MON trcstat_ptracer24_sd         =   9.1169128060616128E-05
(PID.TID 0000.0001) %MON trcstat_ptracer24_del2       =   0.0000000000000000E+00
(PID.TID 0000.0001) %MON trcstat_ptracer25_max        =   6.7711288756045743E-04
(PID.TID 0000.0001) %MON trcstat_ptracer25_min        =   3.1409096159126834E-73
(PID.TID 0000.0001) %MON trcstat_ptracer25_mean       =   2.0675700081346340E-05
(PID.TID 0000.0001) %MON trcstat_ptracer25_sd         =   9.1361250139416797E-05
(PID.TID 0000.0001) %MON trcstat_ptracer25_del2       =   0.0000000000000000E+00
(PID.TID 0000.0001) %MON trcstat_ptracer26_max        =   6.7857921093144777E-04
(PID.TID 0000.0001) %MON trcstat_ptracer26_min        =   9.1196905435076994E-71
(PID.TID 0000.0001) %MON trcstat_ptracer26_mean       =   2.0789837123401584E-05
(PID.TID 0000.0001) %MON trcstat_ptracer26_sd         =   9.2122758935978634E-05
(PID.TID 0000.0001) %MON trcstat_ptracer26_del2       =   0.0000000000000000E+00
(PID.TID 0000.0001) %MON trcstat_ptracer27_max        =   2.8447355793607909E+00
(PID.TID 0000.0001) %MON trcstat_ptracer27_min        =   1.3787332593419702E-70
(PID.TID 0000.0001) %MON trcstat_ptracer27_mean       =   8.2574055805397964E-02
(PID.TID 0000.0001) %MON trcstat_ptracer27_sd         =   4.2525512005697008E-01
(PID.TID 0000.0001) %MON trcstat_ptracer27_del2       =   0.0000000000000000E+00
(PID.TID 0000.0001) %MON trcstat_ptracer28_max        =   2.8447346976680681E+00
(PID.TID 0000.0001) %MON trcstat_ptracer28_min        =   1.3787332593419702E-70
(PID.TID 0000.0001) %MON trcstat_ptracer28_mean       =   8.2574036687803790E-02
(PID.TID 0000.0001) %MON trcstat_ptracer28_sd         =   4.2525500620051848E-01
(PID.TID 0000.0001) %MON trcstat_ptracer28_del2       =   0.0000000000000000E+00
(PID.TID 0000.0001) %MON time_tsnumber                =                     2
(PID.TID 0000.0001) %MON time_secondsf                =   7.2000000000000000E+03
(PID.TID 0000.0001) %MON dynstat_eta_max              =   0.0000000000000000E+00
(PID.TID 0000.0001) %MON dynstat_eta_min              =   0.0000000000000000E+00
(PID.TID 0000.0001) %MON dynstat_eta_mean             =   0.0000000000000000E+00
(PID.TID 0000.0001) %MON dynstat_eta_sd               =   0.0000000000000000E+00
(PID.TID 0000.0001) %MON dynstat_eta_del2             =   0.0000000000000000E+00
(PID.TID 0000.0001) %MON dynstat_uvel_max             =   0.0000000000000000E+00
(PID.TID 0000.0001) %MON dynstat_uvel_min             =   0.0000000000000000E+00
(PID.TID 0000.0001) %MON dynstat_uvel_mean            =   0.0000000000000000E+00
(PID.TID 0000.0001) %MON dynstat_uvel_sd              =   0.0000000000000000E+00
(PID.TID 0000.0001) %MON dynstat_uvel_del2            =   0.0000000000000000E+00
(PID.TID 0000.0001) %MON dynstat_vvel_max             =   0.0000000000000000E+00
(PID.TID 0000.0001) %MON dynstat_vvel_min             =   0.0000000000000000E+00
(PID.TID 0000.0001) %MON dynstat_vvel_mean            =   0.0000000000000000E+00
(PID.TID 0000.0001) %MON dynstat_vvel_sd              =   0.0000000000000000E+00
(PID.TID 0000.0001) %MON dynstat_vvel_del2            =   0.0000000000000000E+00
(PID.TID 0000.0001) %MON dynstat_wvel_max             =   0.0000000000000000E+00
(PID.TID 0000.0001) %MON dynstat_wvel_min             =   0.0000000000000000E+00
(PID.TID 0000.0001) %MON dynstat_wvel_mean            =   0.0000000000000000E+00
(PID.TID 0000.0001) %MON dynstat_wvel_sd              =   0.0000000000000000E+00
(PID.TID 0000.0001) %MON dynstat_wvel_del2            =   0.0000000000000000E+00
(PID.TID 0000.0001) %MON dynstat_theta_max            =   8.2719359074106933E+00
(PID.TID 0000.0001) %MON dynstat_theta_min            =   1.5167012383938983E+00
(PID.TID 0000.0001) %MON dynstat_theta_mean           =   2.8238790423732119E+00
(PID.TID 0000.0001) %MON dynstat_theta_sd             =   1.3642220709211459E+00
(PID.TID 0000.0001) %MON dynstat_theta_del2           =   0.0000000000000000E+00
(PID.TID 0000.0001) %MON dynstat_salt_max             =   3.5000000000000000E+01
(PID.TID 0000.0001) %MON dynstat_salt_min             =   3.5000000000000000E+01
(PID.TID 0000.0001) %MON dynstat_salt_mean            =   3.4999999999999986E+01
(PID.TID 0000.0001) %MON dynstat_salt_sd              =   1.4210854715202004E-14
(PID.TID 0000.0001) %MON dynstat_salt_del2            =   0.0000000000000000E+00
(PID.TID 0000.0001) %MON dynstat_sst_max              =   8.2719359074106933E+00
(PID.TID 0000.0001) %MON dynstat_sst_min              =   8.2719359074106933E+00
(PID.TID 0000.0001) %MON dynstat_sst_mean             =   8.2719359074106933E+00
(PID.TID 0000.0001) %MON dynstat_sst_sd               =   0.0000000000000000E+00
(PID.TID 0000.0001) %MON dynstat_sst_del2             =   0.0000000000000000E+00
(PID.TID 0000.0001) %MON dynstat_sss_max              =   3.5000000000000000E+01
(PID.TID 0000.0001) %MON dynstat_sss_min              =   3.5000000000000000E+01
(PID.TID 0000.0001) %MON dynstat_sss_mean             =   3.5000000000000000E+01
(PID.TID 0000.0001) %MON dynstat_sss_sd               =   0.0000000000000000E+00
(PID.TID 0000.0001) %MON dynstat_sss_del2             =   0.0000000000000000E+00
(PID.TID 0000.0001) %MON forcing_qnet_max             =   0.0000000000000000E+00
(PID.TID 0000.0001) %MON forcing_qnet_min             =   0.0000000000000000E+00
(PID.TID 0000.0001) %MON forcing_qnet_mean            =   0.0000000000000000E+00
(PID.TID 0000.0001) %MON forcing_qnet_sd              =   0.0000000000000000E+00
(PID.TID 0000.0001) %MON forcing_qnet_del2            =   0.0000000000000000E+00
(PID.TID 0000.0001) %MON forcing_qsw_max              =   0.0000000000000000E+00
(PID.TID 0000.0001) %MON forcing_qsw_min              =   0.0000000000000000E+00
(PID.TID 0000.0001) %MON forcing_qsw_mean             =   0.0000000000000000E+00
(PID.TID 0000.0001) %MON forcing_qsw_sd               =   0.0000000000000000E+00
(PID.TID 0000.0001) %MON forcing_qsw_del2             =   0.0000000000000000E+00
(PID.TID 0000.0001) %MON forcing_empmr_max            =   0.0000000000000000E+00
(PID.TID 0000.0001) %MON forcing_empmr_min            =   0.0000000000000000E+00
(PID.TID 0000.0001) %MON forcing_empmr_mean           =   0.0000000000000000E+00
(PID.TID 0000.0001) %MON forcing_empmr_sd             =   0.0000000000000000E+00
(PID.TID 0000.0001) %MON forcing_empmr_del2           =   0.0000000000000000E+00
(PID.TID 0000.0001) %MON forcing_fu_max               =   2.2646569665935306E+00
(PID.TID 0000.0001) %MON forcing_fu_min               =   2.2646569665935306E+00
(PID.TID 0000.0001) %MON forcing_fu_mean              =   2.2646569665935306E+00
(PID.TID 0000.0001) %MON forcing_fu_sd                =   0.0000000000000000E+00
(PID.TID 0000.0001) %MON forcing_fu_del2              =   0.0000000000000000E+00
(PID.TID 0000.0001) %MON forcing_fv_max               =  -4.1312500250836215E-01
(PID.TID 0000.0001) %MON forcing_fv_min               =  -4.1312500250836215E-01
(PID.TID 0000.0001) %MON forcing_fv_mean              =  -4.1312500250836215E-01
(PID.TID 0000.0001) %MON forcing_fv_sd                =   0.0000000000000000E+00
(PID.TID 0000.0001) %MON forcing_fv_del2              =   0.0000000000000000E+00
(PID.TID 0000.0001) %MON advcfl_uvel_max              =   0.0000000000000000E+00
(PID.TID 0000.0001) %MON advcfl_vvel_max              =   0.0000000000000000E+00
(PID.TID 0000.0001) %MON advcfl_wvel_max              =   0.0000000000000000E+00
(PID.TID 0000.0001) %MON advcfl_W_hf_max              =   0.0000000000000000E+00
(PID.TID 0000.0001) %MON pe_b_mean                    =   0.0000000000000000E+00
(PID.TID 0000.0001) %MON ke_max                       =   0.0000000000000000E+00
(PID.TID 0000.0001) %MON ke_mean                      =   0.0000000000000000E+00
(PID.TID 0000.0001) %MON ke_vol                       =   3.0811817830111180E+13
(PID.TID 0000.0001) %MON vort_r_min                   =   0.0000000000000000E+00
(PID.TID 0000.0001) %MON vort_r_max                   =   0.0000000000000000E+00
(PID.TID 0000.0001) %MON vort_a_mean                  =  -1.0312619976227577E-04
(PID.TID 0000.0001) %MON vort_a_sd                    =   2.8760747774580336E-12
(PID.TID 0000.0001) %MON vort_p_mean                  =  -1.0312619976227577E-04
(PID.TID 0000.0001) %MON vort_p_sd                    =   2.8760747774580336E-12
(PID.TID 0000.0001) %MON surfExpan_theta_mean         =   0.0000000000000000E+00
(PID.TID 0000.0001) %MON surfExpan_salt_mean          =   0.0000000000000000E+00
(PID.TID 0000.0001) %MON trcstat_ptracer01_max        =                      NAN
(PID.TID 0000.0001) %MON trcstat_ptracer01_min        =                      NAN
(PID.TID 0000.0001) %MON trcstat_ptracer01_mean       =                      NAN
(PID.TID 0000.0001) %MON trcstat_ptracer01_sd         =                      NAN
(PID.TID 0000.0001) %MON trcstat_ptracer01_del2       =                      NAN
(PID.TID 0000.0001) %MON trcstat_ptracer02_max        =   7.3371475736932223E-01
(PID.TID 0000.0001) %MON trcstat_ptracer02_min        =   5.2226166487114052E-06
(PID.TID 0000.0001) %MON trcstat_ptracer02_mean       =   2.1166579008125824E-02
(PID.TID 0000.0001) %MON trcstat_ptracer02_sd         =   1.1490546532350158E-01
(PID.TID 0000.0001) %MON trcstat_ptracer02_del2       =   0.0000000000000000E+00
(PID.TID 0000.0001) %MON trcstat_ptracer03_max        =   3.3386358882428607E-01
(PID.TID 0000.0001) %MON trcstat_ptracer03_min        =   1.1587208482857823E-04
(PID.TID 0000.0001) %MON trcstat_ptracer03_mean       =   2.6401306730667835E-02
(PID.TID 0000.0001) %MON trcstat_ptracer03_sd         =   6.2932518877045582E-02
(PID.TID 0000.0001) %MON trcstat_ptracer03_del2       =   0.0000000000000000E+00
(PID.TID 0000.0001) %MON trcstat_ptracer04_max        =   3.3950252037083310E+01
(PID.TID 0000.0001) %MON trcstat_ptracer04_min        =   1.6740565569722733E+01
(PID.TID 0000.0001) %MON trcstat_ptracer04_mean       =   3.0465784993551129E+01
(PID.TID 0000.0001) %MON trcstat_ptracer04_sd         =   3.3245612910394526E+00
(PID.TID 0000.0001) %MON trcstat_ptracer04_del2       =   0.0000000000000000E+00
(PID.TID 0000.0001) %MON trcstat_ptracer05_max        =   2.3152017485968144E+00
(PID.TID 0000.0001) %MON trcstat_ptracer05_min        =   1.0840221798256280E+00
(PID.TID 0000.0001) %MON trcstat_ptracer05_mean       =   2.0495138964747692E+00
(PID.TID 0000.0001) %MON trcstat_ptracer05_sd         =   2.5613013668023904E-01
(PID.TID 0000.0001) %MON trcstat_ptracer05_del2       =   0.0000000000000000E+00
(PID.TID 0000.0001) %MON trcstat_ptracer06_max        =   9.2368793828438811E+01
(PID.TID 0000.0001) %MON trcstat_ptracer06_min        =   4.4053934604906086E-01
(PID.TID 0000.0001) %MON trcstat_ptracer06_mean       =   6.0517938712988219E+01
(PID.TID 0000.0001) %MON trcstat_ptracer06_sd         =   2.7564392555686318E+01
(PID.TID 0000.0001) %MON trcstat_ptracer06_del2       =   0.0000000000000000E+00
(PID.TID 0000.0001) %MON trcstat_ptracer07_max        =   1.3003146884500928E-03
(PID.TID 0000.0001) %MON trcstat_ptracer07_min        =   1.2999708365925532E-03
(PID.TID 0000.0001) %MON trcstat_ptracer07_mean       =   1.2999844857005660E-03
(PID.TID 0000.0001) %MON trcstat_ptracer07_sd         =   3.2819579651075905E-08
(PID.TID 0000.0001) %MON trcstat_ptracer07_del2       =   0.0000000000000000E+00
(PID.TID 0000.0001) %MON trcstat_ptracer08_max        =   1.8344446651143677E+01
(PID.TID 0000.0001) %MON trcstat_ptracer08_min        =   7.6954132856062105E-37
(PID.TID 0000.0001) %MON trcstat_ptracer08_mean       =   7.4953666883815084E-01
(PID.TID 0000.0001) %MON trcstat_ptracer08_sd         =   3.0549184874264457E+00
(PID.TID 0000.0001) %MON trcstat_ptracer08_del2       =   0.0000000000000000E+00
(PID.TID 0000.0001) %MON trcstat_ptracer09_max        =   2.4459283161977705E+00
(PID.TID 0000.0001) %MON trcstat_ptracer09_min        =   1.0260551047474948E-37
(PID.TID 0000.0001) %MON trcstat_ptracer09_mean       =   9.9938280300309185E-02
(PID.TID 0000.0001) %MON trcstat_ptracer09_sd         =   4.0732272649064161E-01
(PID.TID 0000.0001) %MON trcstat_ptracer09_del2       =   0.0000000000000000E+00
(PID.TID 0000.0001) %MON trcstat_ptracer10_max        =   1.5287038875953063E-01
(PID.TID 0000.0001) %MON trcstat_ptracer10_min        =   6.4128444046718423E-39
(PID.TID 0000.0001) %MON trcstat_ptracer10_mean       =   6.2461389069845899E-03
(PID.TID 0000.0001) %MON trcstat_ptracer10_sd         =   2.5457654061887047E-02
(PID.TID 0000.0001) %MON trcstat_ptracer10_del2       =   0.0000000000000000E+00
(PID.TID 0000.0001) %MON trcstat_ptracer11_max        =   1.5287291880367788E-04
(PID.TID 0000.0001) %MON trcstat_ptracer11_min        =   6.4128423860386040E-42
(PID.TID 0000.0001) %MON trcstat_ptracer11_mean       =   6.2462087366323304E-06
(PID.TID 0000.0001) %MON trcstat_ptracer11_sd         =   2.5457969977694299E-05
(PID.TID 0000.0001) %MON trcstat_ptracer11_del2       =   0.0000000000000000E+00
(PID.TID 0000.0001) %MON trcstat_ptracer12_max        =   3.1778220390431371E+00
(PID.TID 0000.0001) %MON trcstat_ptracer12_min        =   3.9098068433143715E-03
(PID.TID 0000.0001) %MON trcstat_ptracer12_mean       =   5.6706328588422750E-01
(PID.TID 0000.0001) %MON trcstat_ptracer12_sd         =   9.2152195915570811E-01
(PID.TID 0000.0001) %MON trcstat_ptracer12_del2       =   0.0000000000000000E+00
(PID.TID 0000.0001) %MON trcstat_ptracer13_max        =   4.2370971673557045E-01
(PID.TID 0000.0001) %MON trcstat_ptracer13_min        =   5.2130757910858285E-04
(PID.TID 0000.0001) %MON trcstat_ptracer13_mean       =   7.5608514344356961E-02
(PID.TID 0000.0001) %MON trcstat_ptracer13_sd         =   1.2286966431121714E-01
(PID.TID 0000.0001) %MON trcstat_ptracer13_del2       =   0.0000000000000000E+00
(PID.TID 0000.0001) %MON trcstat_ptracer14_max        =   2.6481850325359477E-02
(PID.TID 0000.0001) %MON trcstat_ptracer14_min        =   3.2581723694286428E-05
(PID.TID 0000.0001) %MON trcstat_ptracer14_mean       =   4.7255273823685624E-03
(PID.TID 0000.0001) %MON trcstat_ptracer14_sd         =   7.6793496596309014E-03
(PID.TID 0000.0001) %MON trcstat_ptracer14_del2       =   0.0000000000000000E+00
(PID.TID 0000.0001) %MON trcstat_ptracer15_max        =   1.7430795516470916E-04
(PID.TID 0000.0001) %MON trcstat_ptracer15_min        =   5.9425937123964855E-08
(PID.TID 0000.0001) %MON trcstat_ptracer15_mean       =   8.0115924001798836E-05
(PID.TID 0000.0001) %MON trcstat_ptracer15_sd         =   6.8114875090899828E-05
(PID.TID 0000.0001) %MON trcstat_ptracer15_del2       =   0.0000000000000000E+00
(PID.TID 0000.0001) %MON trcstat_ptracer16_max        =   2.6481983301093892E-05
(PID.TID 0000.0001) %MON trcstat_ptracer16_min        =   3.2581726785856190E-08
(PID.TID 0000.0001) %MON trcstat_ptracer16_mean       =   4.7256193851213117E-06
(PID.TID 0000.0001) %MON trcstat_ptracer16_sd         =   7.6794337526067070E-06
(PID.TID 0000.0001) %MON trcstat_ptracer16_del2       =   0.0000000000000000E+00
(PID.TID 0000.0001) %MON trcstat_ptracer17_max        =                      NAN
(PID.TID 0000.0001) %MON trcstat_ptracer17_min        =                      NAN
(PID.TID 0000.0001) %MON trcstat_ptracer17_mean       =                      NAN
(PID.TID 0000.0001) %MON trcstat_ptracer17_sd         =                      NAN
(PID.TID 0000.0001) %MON trcstat_ptracer17_del2       =                      NAN
(PID.TID 0000.0001) %MON trcstat_ptracer18_max        =   6.7244118582360647E-04
(PID.TID 0000.0001) %MON trcstat_ptracer18_min        =   1.2907494966220495E-67
(PID.TID 0000.0001) %MON trcstat_ptracer18_mean       =   2.0666066772754381E-05
(PID.TID 0000.0001) %MON trcstat_ptracer18_sd         =   9.1435089057970750E-05
(PID.TID 0000.0001) %MON trcstat_ptracer18_del2       =   0.0000000000000000E+00
(PID.TID 0000.0001) %MON trcstat_ptracer19_max        =   6.8659264033595275E-04
(PID.TID 0000.0001) %MON trcstat_ptracer19_min        =   1.2907494941194753E-67
(PID.TID 0000.0001) %MON trcstat_ptracer19_mean       =   2.0914872447622322E-05
(PID.TID 0000.0001) %MON trcstat_ptracer19_sd         =   9.3110328858937540E-05
(PID.TID 0000.0001) %MON trcstat_ptracer19_del2       =   0.0000000000000000E+00
(PID.TID 0000.0001) %MON trcstat_ptracer20_max        =   6.8295913217738635E-04
(PID.TID 0000.0001) %MON trcstat_ptracer20_min        =   3.7651598461612983E-72
(PID.TID 0000.0001) %MON trcstat_ptracer20_mean       =   2.0696910687707980E-05
(PID.TID 0000.0001) %MON trcstat_ptracer20_sd         =   9.1632791490055170E-05
(PID.TID 0000.0001) %MON trcstat_ptracer20_del2       =   0.0000000000000000E+00
(PID.TID 0000.0001) %MON trcstat_ptracer21_max        =   6.8319527213591227E-04
(PID.TID 0000.0001) %MON trcstat_ptracer21_min        =   3.7651598461612983E-72
(PID.TID 0000.0001) %MON trcstat_ptracer21_mean       =   2.0692469639051557E-05
(PID.TID 0000.0001) %MON trcstat_ptracer21_sd         =   9.1639053428530163E-05
(PID.TID 0000.0001) %MON trcstat_ptracer21_del2       =   0.0000000000000000E+00
(PID.TID 0000.0001) %MON trcstat_ptracer22_max        =   6.8378609511044884E-04
(PID.TID 0000.0001) %MON trcstat_ptracer22_min        =   3.7651598461612983E-72
(PID.TID 0000.0001) %MON trcstat_ptracer22_mean       =   2.0707324028961174E-05
(PID.TID 0000.0001) %MON trcstat_ptracer22_sd         =   9.1703509526778760E-05
(PID.TID 0000.0001) %MON trcstat_ptracer22_del2       =   0.0000000000000000E+00
(PID.TID 0000.0001) %MON trcstat_ptracer23_max        =   6.7875524751678600E-04
(PID.TID 0000.0001) %MON trcstat_ptracer23_min        =   1.2907494941194753E-67
(PID.TID 0000.0001) %MON trcstat_ptracer23_mean       =   2.0753141153409791E-05
(PID.TID 0000.0001) %MON trcstat_ptracer23_sd         =   9.2083927559308921E-05
(PID.TID 0000.0001) %MON trcstat_ptracer23_del2       =   0.0000000000000000E+00
(PID.TID 0000.0001) %MON trcstat_ptracer24_max        =   6.7868300284449994E-04
(PID.TID 0000.0001) %MON trcstat_ptracer24_min        =   3.7651598461612983E-72
(PID.TID 0000.0001) %MON trcstat_ptracer24_mean       =   2.0632238151139334E-05
(PID.TID 0000.0001) %MON trcstat_ptracer24_sd         =   9.1247204322526213E-05
(PID.TID 0000.0001) %MON trcstat_ptracer24_del2       =   0.0000000000000000E+00
(PID.TID 0000.0001) %MON trcstat_ptracer25_max        =   6.8295913217738635E-04
(PID.TID 0000.0001) %MON trcstat_ptracer25_min        =   3.7651598461612983E-72
(PID.TID 0000.0001) %MON trcstat_ptracer25_mean       =   2.0696910687707980E-05
(PID.TID 0000.0001) %MON trcstat_ptracer25_sd         =   9.1632791490055170E-05
(PID.TID 0000.0001) %MON trcstat_ptracer25_del2       =   0.0000000000000000E+00
(PID.TID 0000.0001) %MON trcstat_ptracer26_max        =   6.8592266993877573E-04
(PID.TID 0000.0001) %MON trcstat_ptracer26_min        =   1.2907494974562414E-67
(PID.TID 0000.0001) %MON trcstat_ptracer26_mean       =   2.0927450788321972E-05
(PID.TID 0000.0001) %MON trcstat_ptracer26_sd         =   9.3177235701985808E-05
(PID.TID 0000.0001) %MON trcstat_ptracer26_del2       =   0.0000000000000000E+00
(PID.TID 0000.0001) %MON trcstat_ptracer27_max        =   2.8405859540399074E+00
(PID.TID 0000.0001) %MON trcstat_ptracer27_min        =   1.6521798529015345E-69
(PID.TID 0000.0001) %MON trcstat_ptracer27_mean       =   8.2459548447407965E-02
(PID.TID 0000.0001) %MON trcstat_ptracer27_sd         =   4.2466310897595499E-01
(PID.TID 0000.0001) %MON trcstat_ptracer27_del2       =   0.0000000000000000E+00
(PID.TID 0000.0001) %MON trcstat_ptracer28_max        =   2.8405842525887555E+00
(PID.TID 0000.0001) %MON trcstat_ptracer28_min        =   1.6521798522269007E-69
(PID.TID 0000.0001) %MON trcstat_ptracer28_mean       =   8.2459510691636137E-02
(PID.TID 0000.0001) %MON trcstat_ptracer28_sd         =   4.2466288436111527E-01
(PID.TID 0000.0001) %MON trcstat_ptracer28_del2       =   0.0000000000000000E+00
(PID.TID 0000.0001) %MON time_tsnumber                =                     3
(PID.TID 0000.0001) %MON time_secondsf                =   1.0800000000000000E+04
(PID.TID 0000.0001) %MON dynstat_eta_max              =   0.0000000000000000E+00
(PID.TID 0000.0001) %MON dynstat_eta_min              =   0.0000000000000000E+00
(PID.TID 0000.0001) %MON dynstat_eta_mean             =   0.0000000000000000E+00
(PID.TID 0000.0001) %MON dynstat_eta_sd               =   0.0000000000000000E+00
(PID.TID 0000.0001) %MON dynstat_eta_del2             =   0.0000000000000000E+00
(PID.TID 0000.0001) %MON dynstat_uvel_max             =   0.0000000000000000E+00
(PID.TID 0000.0001) %MON dynstat_uvel_min             =   0.0000000000000000E+00
(PID.TID 0000.0001) %MON dynstat_uvel_mean            =   0.0000000000000000E+00
(PID.TID 0000.0001) %MON dynstat_uvel_sd              =   0.0000000000000000E+00
(PID.TID 0000.0001) %MON dynstat_uvel_del2            =   0.0000000000000000E+00
(PID.TID 0000.0001) %MON dynstat_vvel_max             =   0.0000000000000000E+00
(PID.TID 0000.0001) %MON dynstat_vvel_min             =   0.0000000000000000E+00
(PID.TID 0000.0001) %MON dynstat_vvel_mean            =   0.0000000000000000E+00
(PID.TID 0000.0001) %MON dynstat_vvel_sd              =   0.0000000000000000E+00
(PID.TID 0000.0001) %MON dynstat_vvel_del2            =   0.0000000000000000E+00
(PID.TID 0000.0001) %MON dynstat_wvel_max             =   0.0000000000000000E+00
(PID.TID 0000.0001) %MON dynstat_wvel_min             =   0.0000000000000000E+00
(PID.TID 0000.0001) %MON dynstat_wvel_mean            =   0.0000000000000000E+00
(PID.TID 0000.0001) %MON dynstat_wvel_sd              =   0.0000000000000000E+00
(PID.TID 0000.0001) %MON dynstat_wvel_del2            =   0.0000000000000000E+00
(PID.TID 0000.0001) %MON dynstat_theta_max            =   8.2616915570573877E+00
(PID.TID 0000.0001) %MON dynstat_theta_min            =   1.5167018429027368E+00
(PID.TID 0000.0001) %MON dynstat_theta_mean           =   2.8238551634290574E+00
(PID.TID 0000.0001) %MON dynstat_theta_sd             =   1.3641186209026439E+00
(PID.TID 0000.0001) %MON dynstat_theta_del2           =   0.0000000000000000E+00
(PID.TID 0000.0001) %MON dynstat_salt_max             =   3.5000000000000000E+01
(PID.TID 0000.0001) %MON dynstat_salt_min             =   3.5000000000000000E+01
(PID.TID 0000.0001) %MON dynstat_salt_mean            =   3.4999999999999986E+01
(PID.TID 0000.0001) %MON dynstat_salt_sd              =   1.4210854715202004E-14
(PID.TID 0000.0001) %MON dynstat_salt_del2            =   0.0000000000000000E+00
(PID.TID 0000.0001) %MON dynstat_sst_max              =   8.2616915570573877E+00
(PID.TID 0000.0001) %MON dynstat_sst_min              =   8.2616915570573877E+00
(PID.TID 0000.0001) %MON dynstat_sst_mean             =   8.2616915570573877E+00
(PID.TID 0000.0001) %MON dynstat_sst_sd               =   0.0000000000000000E+00
(PID.TID 0000.0001) %MON dynstat_sst_del2             =   0.0000000000000000E+00
(PID.TID 0000.0001) %MON dynstat_sss_max              =   3.5000000000000000E+01
(PID.TID 0000.0001) %MON dynstat_sss_min              =   3.5000000000000000E+01
(PID.TID 0000.0001) %MON dynstat_sss_mean             =   3.5000000000000000E+01
(PID.TID 0000.0001) %MON dynstat_sss_sd               =   0.0000000000000000E+00
(PID.TID 0000.0001) %MON dynstat_sss_del2             =   0.0000000000000000E+00
(PID.TID 0000.0001) %MON forcing_qnet_max             =   0.0000000000000000E+00
(PID.TID 0000.0001) %MON forcing_qnet_min             =   0.0000000000000000E+00
(PID.TID 0000.0001) %MON forcing_qnet_mean            =   0.0000000000000000E+00
(PID.TID 0000.0001) %MON forcing_qnet_sd              =   0.0000000000000000E+00
(PID.TID 0000.0001) %MON forcing_qnet_del2            =   0.0000000000000000E+00
(PID.TID 0000.0001) %MON forcing_qsw_max              =   0.0000000000000000E+00
(PID.TID 0000.0001) %MON forcing_qsw_min              =   0.0000000000000000E+00
(PID.TID 0000.0001) %MON forcing_qsw_mean             =   0.0000000000000000E+00
(PID.TID 0000.0001) %MON forcing_qsw_sd               =   0.0000000000000000E+00
(PID.TID 0000.0001) %MON forcing_qsw_del2             =   0.0000000000000000E+00
(PID.TID 0000.0001) %MON forcing_empmr_max            =   0.0000000000000000E+00
(PID.TID 0000.0001) %MON forcing_empmr_min            =   0.0000000000000000E+00
(PID.TID 0000.0001) %MON forcing_empmr_mean           =   0.0000000000000000E+00
(PID.TID 0000.0001) %MON forcing_empmr_sd             =   0.0000000000000000E+00
(PID.TID 0000.0001) %MON forcing_empmr_del2           =   0.0000000000000000E+00
(PID.TID 0000.0001) %MON forcing_fu_max               =   2.2648139112525518E+00
(PID.TID 0000.0001) %MON forcing_fu_min               =   2.2648139112525518E+00
(PID.TID 0000.0001) %MON forcing_fu_mean              =   2.2648139112525518E+00
(PID.TID 0000.0001) %MON forcing_fu_sd                =   0.0000000000000000E+00
(PID.TID 0000.0001) %MON forcing_fu_del2              =   0.0000000000000000E+00
(PID.TID 0000.0001) %MON forcing_fv_max               =  -4.1325000251332922E-01
(PID.TID 0000.0001) %MON forcing_fv_min               =  -4.1325000251332922E-01
(PID.TID 0000.0001) %MON forcing_fv_mean              =  -4.1325000251332922E-01
(PID.TID 0000.0001) %MON forcing_fv_sd                =   0.0000000000000000E+00
(PID.TID 0000.0001) %MON forcing_fv_del2              =   0.0000000000000000E+00
(PID.TID 0000.0001) %MON advcfl_uvel_max              =   0.0000000000000000E+00
(PID.TID 0000.0001) %MON advcfl_vvel_max              =   0.0000000000000000E+00
(PID.TID 0000.0001) %MON advcfl_wvel_max              =   0.0000000000000000E+00
(PID.TID 0000.0001) %MON advcfl_W_hf_max              =   0.0000000000000000E+00
(PID.TID 0000.0001) %MON pe_b_mean                    =   0.0000000000000000E+00
(PID.TID 0000.0001) %MON ke_max                       =   0.0000000000000000E+00
(PID.TID 0000.0001) %MON ke_mean                      =   0.0000000000000000E+00
(PID.TID 0000.0001) %MON ke_vol                       =   3.0811817830111180E+13
(PID.TID 0000.0001) %MON vort_r_min                   =   0.0000000000000000E+00
(PID.TID 0000.0001) %MON vort_r_max                   =   0.0000000000000000E+00
(PID.TID 0000.0001) %MON vort_a_mean                  =  -1.0312619976227577E-04
(PID.TID 0000.0001) %MON vort_a_sd                    =   2.8760747774580336E-12
(PID.TID 0000.0001) %MON vort_p_mean                  =  -1.0312619976227577E-04
(PID.TID 0000.0001) %MON vort_p_sd                    =   2.8760747774580336E-12
(PID.TID 0000.0001) %MON surfExpan_theta_mean         =   0.0000000000000000E+00
(PID.TID 0000.0001) %MON surfExpan_salt_mean          =   0.0000000000000000E+00
(PID.TID 0000.0001) %MON trcstat_ptracer01_max        =                      NAN
(PID.TID 0000.0001) %MON trcstat_ptracer01_min        =                      NAN
(PID.TID 0000.0001) %MON trcstat_ptracer01_mean       =                      NAN
(PID.TID 0000.0001) %MON trcstat_ptracer01_sd         =                      NAN
(PID.TID 0000.0001) %MON trcstat_ptracer01_del2       =                      NAN
(PID.TID 0000.0001) %MON trcstat_ptracer02_max        =   7.3481730610159379E-01
(PID.TID 0000.0001) %MON trcstat_ptracer02_min        =   5.2218220727017238E-06
(PID.TID 0000.0001) %MON trcstat_ptracer02_mean       =   2.1177511008088307E-02
(PID.TID 0000.0001) %MON trcstat_ptracer02_sd         =   1.1505927322062914E-01
(PID.TID 0000.0001) %MON trcstat_ptracer02_del2       =   0.0000000000000000E+00
(PID.TID 0000.0001) %MON trcstat_ptracer03_max        =   3.3567216066574646E-01
(PID.TID 0000.0001) %MON trcstat_ptracer03_min        =   1.1582451102972243E-04
(PID.TID 0000.0001) %MON trcstat_ptracer03_mean       =   2.6423304074760932E-02
(PID.TID 0000.0001) %MON trcstat_ptracer03_sd         =   6.3017767399872818E-02
(PID.TID 0000.0001) %MON trcstat_ptracer03_del2       =   0.0000000000000000E+00
(PID.TID 0000.0001) %MON trcstat_ptracer04_max        =   3.3950278555981249E+01
(PID.TID 0000.0001) %MON trcstat_ptracer04_min        =   1.6799180112841466E+01
(PID.TID 0000.0001) %MON trcstat_ptracer04_mean       =   3.0465856513239689E+01
(PID.TID 0000.0001) %MON trcstat_ptracer04_sd         =   3.3244746845183335E+00
(PID.TID 0000.0001) %MON trcstat_ptracer04_del2       =   0.0000000000000000E+00
(PID.TID 0000.0001) %MON trcstat_ptracer05_max        =   2.3152025789788349E+00
(PID.TID 0000.0001) %MON trcstat_ptracer05_min        =   1.0858094883900866E+00
(PID.TID 0000.0001) %MON trcstat_ptracer05_mean       =   2.0495204214056058E+00
(PID.TID 0000.0001) %MON trcstat_ptracer05_sd         =   2.5611728454783705E-01
(PID.TID 0000.0001) %MON trcstat_ptracer05_del2       =   0.0000000000000000E+00
(PID.TID 0000.0001) %MON trcstat_ptracer06_max        =   9.2368792091558561E+01
(PID.TID 0000.0001) %MON trcstat_ptracer06_min        =   4.7138354995601561E-01
(PID.TID 0000.0001) %MON trcstat_ptracer06_mean       =   6.0517938704159072E+01
(PID.TID 0000.0001) %MON trcstat_ptracer06_sd         =   2.7564390555344790E+01
(PID.TID 0000.0001) %MON trcstat_ptracer06_del2       =   0.0000000000000000E+00
(PID.TID 0000.0001) %MON trcstat_ptracer07_max        =   1.3004136850636912E-03
(PID.TID 0000.0001) %MON trcstat_ptracer07_min        =   1.2999562541076881E-03
(PID.TID 0000.0001) %MON trcstat_ptracer07_mean       =   1.2999767217968473E-03
(PID.TID 0000.0001) %MON trcstat_ptracer07_sd         =   4.8395657749903360E-08
(PID.TID 0000.0001) %MON trcstat_ptracer07_del2       =   0.0000000000000000E+00
(PID.TID 0000.0001) %MON trcstat_ptracer08_max        =   1.8341079695850816E+01
(PID.TID 0000.0001) %MON trcstat_ptracer08_min        =   2.6922721332575064E-36
(PID.TID 0000.0001) %MON trcstat_ptracer08_mean       =   7.4935092796913683E-01
(PID.TID 0000.0001) %MON trcstat_ptracer08_sd         =   3.0542657196664944E+00
(PID.TID 0000.0001) %MON trcstat_ptracer08_del2       =   0.0000000000000000E+00
(PID.TID 0000.0001) %MON trcstat_ptracer09_max        =   2.4454804440348887E+00
(PID.TID 0000.0001) %MON trcstat_ptracer09_min        =   3.5896961776766751E-37
(PID.TID 0000.0001) %MON trcstat_ptracer09_mean       =   9.9913543765362073E-02
(PID.TID 0000.0001) %MON trcstat_ptracer09_sd         =   4.0723582189045282E-01
(PID.TID 0000.0001) %MON trcstat_ptracer09_del2       =   0.0000000000000000E+00
(PID.TID 0000.0001) %MON trcstat_ptracer10_max        =   1.5284233079875681E-01
(PID.TID 0000.0001) %MON trcstat_ptracer10_min        =   2.2435601110479219E-38
(PID.TID 0000.0001) %MON trcstat_ptracer10_mean       =   6.2445910664094733E-03
(PID.TID 0000.0001) %MON trcstat_ptracer10_sd         =   2.5452214330554120E-02
(PID.TID 0000.0001) %MON trcstat_ptracer10_del2       =   0.0000000000000000E+00
(PID.TID 0000.0001) %MON trcstat_ptracer11_max        =   1.5284613588868195E-04
(PID.TID 0000.0001) %MON trcstat_ptracer11_min        =   2.2435594048209299E-41
(PID.TID 0000.0001) %MON trcstat_ptracer11_mean       =   6.2446958341142652E-06
(PID.TID 0000.0001) %MON trcstat_ptracer11_sd         =   2.5452688660533238E-05
(PID.TID 0000.0001) %MON trcstat_ptracer11_del2       =   0.0000000000000000E+00
(PID.TID 0000.0001) %MON trcstat_ptracer12_max        =   3.1737141872256815E+00
(PID.TID 0000.0001) %MON trcstat_ptracer12_min        =   3.9119764162984169E-03
(PID.TID 0000.0001) %MON trcstat_ptracer12_mean       =   5.6669433924264123E-01
(PID.TID 0000.0001) %MON trcstat_ptracer12_sd         =   9.2067431941648092E-01
(PID.TID 0000.0001) %MON trcstat_ptracer12_del2       =   0.0000000000000000E+00
(PID.TID 0000.0001) %MON trcstat_ptracer13_max        =   4.2316205900664544E-01
(PID.TID 0000.0001) %MON trcstat_ptracer13_min        =   5.2159685550645554E-04
(PID.TID 0000.0001) %MON trcstat_ptracer13_mean       =   7.5559359626601472E-02
(PID.TID 0000.0001) %MON trcstat_ptracer13_sd         =   1.2275668009102778E-01
(PID.TID 0000.0001) %MON trcstat_ptracer13_del2       =   0.0000000000000000E+00
(PID.TID 0000.0001) %MON trcstat_ptracer14_max        =   2.6447618226880680E-02
(PID.TID 0000.0001) %MON trcstat_ptracer14_min        =   3.2599803469153471E-05
(PID.TID 0000.0001) %MON trcstat_ptracer14_mean       =   4.7224528270220101E-03
(PID.TID 0000.0001) %MON trcstat_ptracer14_sd         =   7.6722859951373406E-03
(PID.TID 0000.0001) %MON trcstat_ptracer14_del2       =   0.0000000000000000E+00
(PID.TID 0000.0001) %MON trcstat_ptracer15_max        =   1.7441745024587211E-04
(PID.TID 0000.0001) %MON trcstat_ptracer15_min        =   6.5050502400531174E-08
(PID.TID 0000.0001) %MON trcstat_ptracer15_mean       =   8.0123886044320615E-05
(PID.TID 0000.0001) %MON trcstat_ptracer15_sd         =   6.8105124593001741E-05
(PID.TID 0000.0001) %MON trcstat_ptracer15_del2       =   0.0000000000000000E+00
(PID.TID 0000.0001) %MON trcstat_ptracer16_max        =   2.6447818685821680E-05
(PID.TID 0000.0001) %MON trcstat_ptracer16_min        =   3.2599806557524112E-08
(PID.TID 0000.0001) %MON trcstat_ptracer16_mean       =   4.7225909492737250E-06
(PID.TID 0000.0001) %MON trcstat_ptracer16_sd         =   7.6724116889858655E-06
(PID.TID 0000.0001) %MON trcstat_ptracer16_del2       =   0.0000000000000000E+00
(PID.TID 0000.0001) %MON trcstat_ptracer17_max        =                      NAN
(PID.TID 0000.0001) %MON trcstat_ptracer17_min        =                      NAN
(PID.TID 0000.0001) %MON trcstat_ptracer17_mean       =                      NAN
(PID.TID 0000.0001) %MON trcstat_ptracer17_sd         =                      NAN
(PID.TID 0000.0001) %MON trcstat_ptracer17_del2       =                      NAN
(PID.TID 0000.0001) %MON trcstat_ptracer18_max        =   6.7299726516443386E-04
(PID.TID 0000.0001) %MON trcstat_ptracer18_min        =   7.9365186181758602E-65
(PID.TID 0000.0001) %MON trcstat_ptracer18_mean       =   2.0672570045392066E-05
(PID.TID 0000.0001) %MON trcstat_ptracer18_sd         =   9.1613724445532065E-05
(PID.TID 0000.0001) %MON trcstat_ptracer18_del2       =   0.0000000000000000E+00
(PID.TID 0000.0001) %MON trcstat_ptracer19_max        =   6.9436440651232786E-04
(PID.TID 0000.0001) %MON trcstat_ptracer19_min        =   7.9365185827308587E-65
(PID.TID 0000.0001) %MON trcstat_ptracer19_mean       =   2.1048740410569819E-05
(PID.TID 0000.0001) %MON trcstat_ptracer19_sd         =   9.4151151123362211E-05
(PID.TID 0000.0001) %MON trcstat_ptracer19_del2       =   0.0000000000000000E+00
(PID.TID 0000.0001) %MON trcstat_ptracer20_max        =   6.8885866097838464E-04
(PID.TID 0000.0001) %MON trcstat_ptracer20_min        =   2.4448011275445331E-71
(PID.TID 0000.0001) %MON trcstat_ptracer20_mean       =   2.0718542323526721E-05
(PID.TID 0000.0001) %MON trcstat_ptracer20_sd         =   9.1903738085440210E-05
(PID.TID 0000.0001) %MON trcstat_ptracer20_del2       =   0.0000000000000000E+00
(PID.TID 0000.0001) %MON trcstat_ptracer21_max        =   6.8921870283207727E-04
(PID.TID 0000.0001) %MON trcstat_ptracer21_min        =   2.4448011275445331E-71
(PID.TID 0000.0001) %MON trcstat_ptracer21_mean       =   2.0711946899805136E-05
(PID.TID 0000.0001) %MON trcstat_ptracer21_sd         =   9.1913679447000763E-05
(PID.TID 0000.0001) %MON trcstat_ptracer21_del2       =   0.0000000000000000E+00
(PID.TID 0000.0001) %MON trcstat_ptracer22_max        =   6.9011057016558539E-04
(PID.TID 0000.0001) %MON trcstat_ptracer22_min        =   2.4448011275445331E-71
(PID.TID 0000.0001) %MON trcstat_ptracer22_mean       =   2.0734252199572900E-05
(PID.TID 0000.0001) %MON trcstat_ptracer22_sd         =   9.2010422873118502E-05
(PID.TID 0000.0001) %MON trcstat_ptracer22_del2       =   0.0000000000000000E+00
(PID.TID 0000.0001) %MON trcstat_ptracer23_max        =   6.8250307892487748E-04
(PID.TID 0000.0001) %MON trcstat_ptracer23_min        =   7.9365185827308587E-65
(PID.TID 0000.0001) %MON trcstat_ptracer23_mean       =   2.0803641790566205E-05
(PID.TID 0000.0001) %MON trcstat_ptracer23_sd         =   9.2590799953042236E-05
(PID.TID 0000.0001) %MON trcstat_ptracer23_del2       =   0.0000000000000000E+00
(PID.TID 0000.0001) %MON trcstat_ptracer24_max        =   6.8239939836205058E-04
(PID.TID 0000.0001) %MON trcstat_ptracer24_min        =   2.4448011275445331E-71
(PID.TID 0000.0001) %MON trcstat_ptracer24_mean       =   2.0621276526825656E-05
(PID.TID 0000.0001) %MON trcstat_ptracer24_sd         =   9.1323634964295762E-05
(PID.TID 0000.0001) %MON trcstat_ptracer24_del2       =   0.0000000000000000E+00
(PID.TID 0000.0001) %MON trcstat_ptracer25_max        =   6.8885866097838464E-04
(PID.TID 0000.0001) %MON trcstat_ptracer25_min        =   2.4448011275445331E-71
(PID.TID 0000.0001) %MON trcstat_ptracer25_mean       =   2.0718542323526721E-05
(PID.TID 0000.0001) %MON trcstat_ptracer25_sd         =   9.1903738085440210E-05
(PID.TID 0000.0001) %MON trcstat_ptracer25_del2       =   0.0000000000000000E+00
(PID.TID 0000.0001) %MON trcstat_ptracer26_max        =   6.9334634611614124E-04
(PID.TID 0000.0001) %MON trcstat_ptracer26_min        =   7.9365186299908607E-65
(PID.TID 0000.0001) %MON trcstat_ptracer26_mean       =   2.1067850316724120E-05
(PID.TID 0000.0001) %MON trcstat_ptracer26_sd         =   9.4254679703301532E-05
(PID.TID 0000.0001) %MON trcstat_ptracer26_del2       =   0.0000000000000000E+00
(PID.TID 0000.0001) %MON trcstat_ptracer27_max        =   2.8365829289304960E+00
(PID.TID 0000.0001) %MON trcstat_ptracer27_min        =   1.0724239448968204E-68
(PID.TID 0000.0001) %MON trcstat_ptracer27_mean       =   8.2345200439040811E-02
(PID.TID 0000.0001) %MON trcstat_ptracer27_sd         =   4.2407192679055938E-01
(PID.TID 0000.0001) %MON trcstat_ptracer27_del2       =   0.0000000000000000E+00
(PID.TID 0000.0001) %MON trcstat_ptracer28_max        =   2.8365804524008613E+00
(PID.TID 0000.0001) %MON trcstat_ptracer28_min        =   1.0724239440216590E-68
(PID.TID 0000.0001) %MON trcstat_ptracer28_mean       =   8.2345144531731168E-02
(PID.TID 0000.0001) %MON trcstat_ptracer28_sd         =   4.2407159456234267E-01
(PID.TID 0000.0001) %MON trcstat_ptracer28_del2       =   0.0000000000000000E+00
(PID.TID 0000.0001) %MON time_tsnumber                =                     4
(PID.TID 0000.0001) %MON time_secondsf                =   1.4400000000000000E+04
(PID.TID 0000.0001) %MON dynstat_eta_max              =   0.0000000000000000E+00
(PID.TID 0000.0001) %MON dynstat_eta_min              =   0.0000000000000000E+00
(PID.TID 0000.0001) %MON dynstat_eta_mean             =   0.0000000000000000E+00
(PID.TID 0000.0001) %MON dynstat_eta_sd               =   0.0000000000000000E+00
(PID.TID 0000.0001) %MON dynstat_eta_del2             =   0.0000000000000000E+00
(PID.TID 0000.0001) %MON dynstat_uvel_max             =   0.0000000000000000E+00
(PID.TID 0000.0001) %MON dynstat_uvel_min             =   0.0000000000000000E+00
(PID.TID 0000.0001) %MON dynstat_uvel_mean            =   0.0000000000000000E+00
(PID.TID 0000.0001) %MON dynstat_uvel_sd              =   0.0000000000000000E+00
(PID.TID 0000.0001) %MON dynstat_uvel_del2            =   0.0000000000000000E+00
(PID.TID 0000.0001) %MON dynstat_vvel_max             =   0.0000000000000000E+00
(PID.TID 0000.0001) %MON dynstat_vvel_min             =   0.0000000000000000E+00
(PID.TID 0000.0001) %MON dynstat_vvel_mean            =   0.0000000000000000E+00
(PID.TID 0000.0001) %MON dynstat_vvel_sd              =   0.0000000000000000E+00
(PID.TID 0000.0001) %MON dynstat_vvel_del2            =   0.0000000000000000E+00
(PID.TID 0000.0001) %MON dynstat_wvel_max             =   0.0000000000000000E+00
(PID.TID 0000.0001) %MON dynstat_wvel_min             =   0.0000000000000000E+00
(PID.TID 0000.0001) %MON dynstat_wvel_mean            =   0.0000000000000000E+00
(PID.TID 0000.0001) %MON dynstat_wvel_sd              =   0.0000000000000000E+00
(PID.TID 0000.0001) %MON dynstat_wvel_del2            =   0.0000000000000000E+00
(PID.TID 0000.0001) %MON dynstat_theta_max            =   8.2508948224563863E+00
(PID.TID 0000.0001) %MON dynstat_theta_min            =   1.5167024474105579E+00
(PID.TID 0000.0001) %MON dynstat_theta_mean           =   2.8238325601456404E+00
(PID.TID 0000.0001) %MON dynstat_theta_sd             =   1.3640210027633008E+00
(PID.TID 0000.0001) %MON dynstat_theta_del2           =   0.0000000000000000E+00
(PID.TID 0000.0001) %MON dynstat_salt_max             =   3.5000000000000000E+01
(PID.TID 0000.0001) %MON dynstat_salt_min             =   3.5000000000000000E+01
(PID.TID 0000.0001) %MON dynstat_salt_mean            =   3.4999999999999986E+01
(PID.TID 0000.0001) %MON dynstat_salt_sd              =   1.4210854715202004E-14
(PID.TID 0000.0001) %MON dynstat_salt_del2            =   0.0000000000000000E+00
(PID.TID 0000.0001) %MON dynstat_sst_max              =   8.2508948224563863E+00
(PID.TID 0000.0001) %MON dynstat_sst_min              =   8.2508948224563863E+00
(PID.TID 0000.0001) %MON dynstat_sst_mean             =   8.2508948224563863E+00
(PID.TID 0000.0001) %MON dynstat_sst_sd               =   0.0000000000000000E+00
(PID.TID 0000.0001) %MON dynstat_sst_del2             =   0.0000000000000000E+00
(PID.TID 0000.0001) %MON dynstat_sss_max              =   3.5000000000000000E+01
(PID.TID 0000.0001) %MON dynstat_sss_min              =   3.5000000000000000E+01
(PID.TID 0000.0001) %MON dynstat_sss_mean             =   3.5000000000000000E+01
(PID.TID 0000.0001) %MON dynstat_sss_sd               =   0.0000000000000000E+00
(PID.TID 0000.0001) %MON dynstat_sss_del2             =   0.0000000000000000E+00
(PID.TID 0000.0001) %MON forcing_qnet_max             =   0.0000000000000000E+00
(PID.TID 0000.0001) %MON forcing_qnet_min             =   0.0000000000000000E+00
(PID.TID 0000.0001) %MON forcing_qnet_mean            =   0.0000000000000000E+00
(PID.TID 0000.0001) %MON forcing_qnet_sd              =   0.0000000000000000E+00
(PID.TID 0000.0001) %MON forcing_qnet_del2            =   0.0000000000000000E+00
(PID.TID 0000.0001) %MON forcing_qsw_max              =   0.0000000000000000E+00
(PID.TID 0000.0001) %MON forcing_qsw_min              =   0.0000000000000000E+00
(PID.TID 0000.0001) %MON forcing_qsw_mean             =   0.0000000000000000E+00
(PID.TID 0000.0001) %MON forcing_qsw_sd               =   0.0000000000000000E+00
(PID.TID 0000.0001) %MON forcing_qsw_del2             =   0.0000000000000000E+00
(PID.TID 0000.0001) %MON forcing_empmr_max            =   0.0000000000000000E+00
(PID.TID 0000.0001) %MON forcing_empmr_min            =   0.0000000000000000E+00
(PID.TID 0000.0001) %MON forcing_empmr_mean           =   0.0000000000000000E+00
(PID.TID 0000.0001) %MON forcing_empmr_sd             =   0.0000000000000000E+00
(PID.TID 0000.0001) %MON forcing_empmr_del2           =   0.0000000000000000E+00
(PID.TID 0000.0001) %MON forcing_fu_max               =   2.2649708559115727E+00
(PID.TID 0000.0001) %MON forcing_fu_min               =   2.2649708559115727E+00
(PID.TID 0000.0001) %MON forcing_fu_mean              =   2.2649708559115727E+00
(PID.TID 0000.0001) %MON forcing_fu_sd                =   0.0000000000000000E+00
(PID.TID 0000.0001) %MON forcing_fu_del2              =   0.0000000000000000E+00
(PID.TID 0000.0001) %MON forcing_fv_max               =  -4.1337500251829623E-01
(PID.TID 0000.0001) %MON forcing_fv_min               =  -4.1337500251829623E-01
(PID.TID 0000.0001) %MON forcing_fv_mean              =  -4.1337500251829623E-01
(PID.TID 0000.0001) %MON forcing_fv_sd                =   0.0000000000000000E+00
(PID.TID 0000.0001) %MON forcing_fv_del2              =   0.0000000000000000E+00
(PID.TID 0000.0001) %MON advcfl_uvel_max              =   0.0000000000000000E+00
(PID.TID 0000.0001) %MON advcfl_vvel_max              =   0.0000000000000000E+00
(PID.TID 0000.0001) %MON advcfl_wvel_max              =   0.0000000000000000E+00
(PID.TID 0000.0001) %MON advcfl_W_hf_max              =   0.0000000000000000E+00
(PID.TID 0000.0001) %MON pe_b_mean                    =   0.0000000000000000E+00
(PID.TID 0000.0001) %MON ke_max                       =   0.0000000000000000E+00
(PID.TID 0000.0001) %MON ke_mean                      =   0.0000000000000000E+00
(PID.TID 0000.0001) %MON ke_vol                       =   3.0811817830111180E+13
(PID.TID 0000.0001) %MON vort_r_min                   =   0.0000000000000000E+00
(PID.TID 0000.0001) %MON vort_r_max                   =   0.0000000000000000E+00
(PID.TID 0000.0001) %MON vort_a_mean                  =  -1.0312619976227577E-04
(PID.TID 0000.0001) %MON vort_a_sd                    =   2.8760747774580336E-12
(PID.TID 0000.0001) %MON vort_p_mean                  =  -1.0312619976227577E-04
(PID.TID 0000.0001) %MON vort_p_sd                    =   2.8760747774580336E-12
(PID.TID 0000.0001) %MON surfExpan_theta_mean         =   0.0000000000000000E+00
(PID.TID 0000.0001) %MON surfExpan_salt_mean          =   0.0000000000000000E+00
(PID.TID 0000.0001) %MON trcstat_ptracer01_max        =                      NAN
(PID.TID 0000.0001) %MON trcstat_ptracer01_min        =                      NAN
(PID.TID 0000.0001) %MON trcstat_ptracer01_mean       =                      NAN
(PID.TID 0000.0001) %MON trcstat_ptracer01_sd         =                      NAN
(PID.TID 0000.0001) %MON trcstat_ptracer01_del2       =                      NAN
(PID.TID 0000.0001) %MON trcstat_ptracer02_max        =   7.3592312711770025E-01
(PID.TID 0000.0001) %MON trcstat_ptracer02_min        =   5.2213347753583838E-06
(PID.TID 0000.0001) %MON trcstat_ptracer02_mean       =   2.1189033155359659E-02
(PID.TID 0000.0001) %MON trcstat_ptracer02_sd         =   1.1521412273250753E-01
(PID.TID 0000.0001) %MON trcstat_ptracer02_del2       =   0.0000000000000000E+00
(PID.TID 0000.0001) %MON trcstat_ptracer03_max        =   3.3951525846875380E-01
(PID.TID 0000.0001) %MON trcstat_ptracer03_min        =   1.1577706924623117E-04
(PID.TID 0000.0001) %MON trcstat_ptracer03_mean       =   2.6444619271527088E-02
(PID.TID 0000.0001) %MON trcstat_ptracer03_sd         =   6.3100988675979117E-02
(PID.TID 0000.0001) %MON trcstat_ptracer03_del2       =   0.0000000000000000E+00
(PID.TID 0000.0001) %MON trcstat_ptracer04_max        =   3.3950305117557036E+01
(PID.TID 0000.0001) %MON trcstat_ptracer04_min        =   1.6869943195597280E+01
(PID.TID 0000.0001) %MON trcstat_ptracer04_mean       =   3.0465928072188582E+01
(PID.TID 0000.0001) %MON trcstat_ptracer04_sd         =   3.3243913357608084E+00
(PID.TID 0000.0001) %MON trcstat_ptracer04_del2       =   0.0000000000000000E+00
(PID.TID 0000.0001) %MON trcstat_ptracer05_max        =   2.3152034102186443E+00
(PID.TID 0000.0001) %MON trcstat_ptracer05_min        =   1.0873953509829366E+00
(PID.TID 0000.0001) %MON trcstat_ptracer05_mean       =   2.0495269430237504E+00
(PID.TID 0000.0001) %MON trcstat_ptracer05_sd         =   2.5610456823370265E-01
(PID.TID 0000.0001) %MON trcstat_ptracer05_del2       =   0.0000000000000000E+00
(PID.TID 0000.0001) %MON trcstat_ptracer06_max        =   9.2368790354693900E+01
(PID.TID 0000.0001) %MON trcstat_ptracer06_min        =   4.8377352225608644E-01
(PID.TID 0000.0001) %MON trcstat_ptracer06_mean       =   6.0517938695263787E+01
(PID.TID 0000.0001) %MON trcstat_ptracer06_sd         =   2.7564388692664306E+01
(PID.TID 0000.0001) %MON trcstat_ptracer06_del2       =   0.0000000000000000E+00
(PID.TID 0000.0001) %MON trcstat_ptracer07_max        =   1.3005031188277967E-03
(PID.TID 0000.0001) %MON trcstat_ptracer07_min        =   1.2999416722816821E-03
(PID.TID 0000.0001) %MON trcstat_ptracer07_mean       =   1.2999689545783023E-03
(PID.TID 0000.0001) %MON trcstat_ptracer07_sd         =   6.3939808562577506E-08
(PID.TID 0000.0001) %MON trcstat_ptracer07_del2       =   0.0000000000000000E+00
(PID.TID 0000.0001) %MON trcstat_ptracer08_max        =   1.8337691673049196E+01
(PID.TID 0000.0001) %MON trcstat_ptracer08_min        =   7.1764002250143469E-36
(PID.TID 0000.0001) %MON trcstat_ptracer08_mean       =   7.4916509098441653E-01
(PID.TID 0000.0001) %MON trcstat_ptracer08_sd         =   3.0536123764817131E+00
(PID.TID 0000.0001) %MON trcstat_ptracer08_del2       =   0.0000000000000000E+00
(PID.TID 0000.0001) %MON trcstat_ptracer09_max        =   2.4450297669669721E+00
(PID.TID 0000.0001) %MON trcstat_ptracer09_min        =   9.5685336333524622E-37
(PID.TID 0000.0001) %MON trcstat_ptracer09_mean       =   9.9888794429288066E-02
(PID.TID 0000.0001) %MON trcstat_ptracer09_sd         =   4.0714884080571384E-01
(PID.TID 0000.0001) %MON trcstat_ptracer09_del2       =   0.0000000000000000E+00
(PID.TID 0000.0001) %MON trcstat_ptracer10_max        =   1.5281409727540998E-01
(PID.TID 0000.0001) %MON trcstat_ptracer10_min        =   5.9803335208452889E-38
(PID.TID 0000.0001) %MON trcstat_ptracer10_mean       =   6.2430424248701381E-03
(PID.TID 0000.0001) %MON trcstat_ptracer10_sd         =   2.5446769804014276E-02
(PID.TID 0000.0001) %MON trcstat_ptracer10_del2       =   0.0000000000000000E+00
(PID.TID 0000.0001) %MON trcstat_ptracer11_max        =   1.5281918235606317E-04
(PID.TID 0000.0001) %MON trcstat_ptracer11_min        =   5.9803316383586938E-41
(PID.TID 0000.0001) %MON trcstat_ptracer11_mean       =   6.2431821479118584E-06
(PID.TID 0000.0001) %MON trcstat_ptracer11_sd         =   2.5447402836772449E-05
(PID.TID 0000.0001) %MON trcstat_ptracer11_del2       =   0.0000000000000000E+00
(PID.TID 0000.0001) %MON trcstat_ptracer12_max        =   3.1696028777741105E+00
(PID.TID 0000.0001) %MON trcstat_ptracer12_min        =   3.9141446121139919E-03
(PID.TID 0000.0001) %MON trcstat_ptracer12_mean       =   5.6632555884234348E-01
(PID.TID 0000.0001) %MON trcstat_ptracer12_sd         =   9.1982685807631648E-01
(PID.TID 0000.0001) %MON trcstat_ptracer12_del2       =   0.0000000000000000E+00
(PID.TID 0000.0001) %MON trcstat_ptracer13_max        =   4.2261394031722022E-01
(PID.TID 0000.0001) %MON trcstat_ptracer13_min        =   5.2188594828186561E-04
(PID.TID 0000.0001) %MON trcstat_ptracer13_mean       =   7.5510227112215667E-02
(PID.TID 0000.0001) %MON trcstat_ptracer13_sd         =   1.2264371934015608E-01
(PID.TID 0000.0001) %MON trcstat_ptracer13_del2       =   0.0000000000000000E+00
(PID.TID 0000.0001) %MON trcstat_ptracer14_max        =   2.6413357314784253E-02
(PID.TID 0000.0001) %MON trcstat_ptracer14_min        =   3.2617871767616601E-05
(PID.TID 0000.0001) %MON trcstat_ptracer14_mean       =   4.7193796570195292E-03
(PID.TID 0000.0001) %MON trcstat_ptracer14_sd         =   7.6652238173026375E-03
(PID.TID 0000.0001) %MON trcstat_ptracer14_del2       =   0.0000000000000000E+00
(PID.TID 0000.0001) %MON trcstat_ptracer15_max        =   1.7452688916177642E-04
(PID.TID 0000.0001) %MON trcstat_ptracer15_min        =   7.0749922741501539E-08
(PID.TID 0000.0001) %MON trcstat_ptracer15_mean       =   8.0131856483399864E-05
(PID.TID 0000.0001) %MON trcstat_ptracer15_sd         =   6.8095533635826436E-05
(PID.TID 0000.0001) %MON trcstat_ptracer15_del2       =   0.0000000000000000E+00
(PID.TID 0000.0001) %MON trcstat_ptracer16_max        =   2.6413625327212696E-05
(PID.TID 0000.0001) %MON trcstat_ptracer16_min        =   3.2617874852787551E-08
(PID.TID 0000.0001) %MON trcstat_ptracer16_mean       =   4.7195639445231260E-06
(PID.TID 0000.0001) %MON trcstat_ptracer16_sd         =   7.6653907366092147E-06
(PID.TID 0000.0001) %MON trcstat_ptracer16_del2       =   0.0000000000000000E+00
(PID.TID 0000.0001) %MON trcstat_ptracer17_max        =                      NAN
(PID.TID 0000.0001) %MON trcstat_ptracer17_min        =                      NAN
(PID.TID 0000.0001) %MON trcstat_ptracer17_mean       =                      NAN
(PID.TID 0000.0001) %MON trcstat_ptracer17_sd         =                      NAN
(PID.TID 0000.0001) %MON trcstat_ptracer17_del2       =                      NAN
(PID.TID 0000.0001) %MON trcstat_ptracer18_max        =   6.7345299575730414E-04
(PID.TID 0000.0001) %MON trcstat_ptracer18_min        =   2.7843292284843702E-62
(PID.TID 0000.0001) %MON trcstat_ptracer18_mean       =   2.0679506420973007E-05
(PID.TID 0000.0001) %MON trcstat_ptracer18_sd         =   9.1796404974056134E-05
(PID.TID 0000.0001) %MON trcstat_ptracer18_del2       =   0.0000000000000000E+00
(PID.TID 0000.0001) %MON trcstat_ptracer19_max        =   7.0214253212281716E-04
(PID.TID 0000.0001) %MON trcstat_ptracer19_min        =   2.7843292066700613E-62
(PID.TID 0000.0001) %MON trcstat_ptracer19_mean       =   2.1185283012495219E-05
(PID.TID 0000.0001) %MON trcstat_ptracer19_sd         =   9.5214833148980524E-05
(PID.TID 0000.0001) %MON trcstat_ptracer19_del2       =   0.0000000000000000E+00
(PID.TID 0000.0001) %MON trcstat_ptracer20_max        =   6.9466636708990527E-04
(PID.TID 0000.0001) %MON trcstat_ptracer20_min        =   1.1397172848885271E-70
(PID.TID 0000.0001) %MON trcstat_ptracer20_mean       =   2.0740531988431302E-05
(PID.TID 0000.0001) %MON trcstat_ptracer20_sd         =   9.2175195591236218E-05
(PID.TID 0000.0001) %MON trcstat_ptracer20_del2       =   0.0000000000000000E+00
(PID.TID 0000.0001) %MON trcstat_ptracer21_max        =   6.9515392920460638E-04
(PID.TID 0000.0001) %MON trcstat_ptracer21_min        =   1.1397172848885271E-70
(PID.TID 0000.0001) %MON trcstat_ptracer21_mean       =   2.0731825826431261E-05
(PID.TID 0000.0001) %MON trcstat_ptracer21_sd         =   9.2189162061056423E-05
(PID.TID 0000.0001) %MON trcstat_ptracer21_del2       =   0.0000000000000000E+00
(PID.TID 0000.0001) %MON trcstat_ptracer22_max        =   6.9634976168750297E-04
(PID.TID 0000.0001) %MON trcstat_ptracer22_min        =   1.1397172848885271E-70
(PID.TID 0000.0001) %MON trcstat_ptracer22_mean       =   2.0761593837418228E-05
(PID.TID 0000.0001) %MON trcstat_ptracer22_sd         =   9.2318178800197297E-05
(PID.TID 0000.0001) %MON trcstat_ptracer22_del2       =   0.0000000000000000E+00
(PID.TID 0000.0001) %MON trcstat_ptracer23_max        =   6.8617742988994065E-04
(PID.TID 0000.0001) %MON trcstat_ptracer23_min        =   2.7843292066700613E-62
(PID.TID 0000.0001) %MON trcstat_ptracer23_mean       =   2.0855100437117691E-05
(PID.TID 0000.0001) %MON trcstat_ptracer23_sd         =   9.3106258046166235E-05
(PID.TID 0000.0001) %MON trcstat_ptracer23_del2       =   0.0000000000000000E+00
(PID.TID 0000.0001) %MON trcstat_ptracer24_max        =   6.8599985232915481E-04
(PID.TID 0000.0001) %MON trcstat_ptracer24_min        =   1.1397172848885271E-70
(PID.TID 0000.0001) %MON trcstat_ptracer24_mean       =   2.0610523202725987E-05
(PID.TID 0000.0001) %MON trcstat_ptracer24_sd         =   9.1399763992447509E-05
(PID.TID 0000.0001) %MON trcstat_ptracer24_del2       =   0.0000000000000000E+00
(PID.TID 0000.0001) %MON trcstat_ptracer25_max        =   6.9466636708990527E-04
(PID.TID 0000.0001) %MON trcstat_ptracer25_min        =   1.1397172848885271E-70
(PID.TID 0000.0001) %MON trcstat_ptracer25_mean       =   2.0740531988431302E-05
(PID.TID 0000.0001) %MON trcstat_ptracer25_sd         =   9.2175195591236218E-05
(PID.TID 0000.0001) %MON trcstat_ptracer25_del2       =   0.0000000000000000E+00
(PID.TID 0000.0001) %MON trcstat_ptracer26_max        =   7.0077329607882240E-04
(PID.TID 0000.0001) %MON trcstat_ptracer26_min        =   2.7843292357558074E-62
(PID.TID 0000.0001) %MON trcstat_ptracer26_mean       =   2.1211084621953695E-05
(PID.TID 0000.0001) %MON trcstat_ptracer26_sd         =   9.5356909088080693E-05
(PID.TID 0000.0001) %MON trcstat_ptracer26_del2       =   0.0000000000000000E+00
(PID.TID 0000.0001) %MON trcstat_ptracer27_max        =   2.8326314506651795E+00
(PID.TID 0000.0001) %MON trcstat_ptracer27_min        =   4.9976876176722693E-68
(PID.TID 0000.0001) %MON trcstat_ptracer27_mean       =   8.2231011562388129E-02
(PID.TID 0000.0001) %MON trcstat_ptracer27_sd         =   4.2348157193348240E-01
(PID.TID 0000.0001) %MON trcstat_ptracer27_del2       =   0.0000000000000000E+00
(PID.TID 0000.0001) %MON trcstat_ptracer28_max        =   2.8326282303445764E+00
(PID.TID 0000.0001) %MON trcstat_ptracer28_min        =   4.9976876115595562E-68
(PID.TID 0000.0001) %MON trcstat_ptracer28_mean       =   8.2230937997518225E-02
(PID.TID 0000.0001) %MON trcstat_ptracer28_sd         =   4.2348113528463732E-01
(PID.TID 0000.0001) %MON trcstat_ptracer28_del2       =   0.0000000000000000E+00
