(PID.TID 0000.0001) %MON XC_max                       =   3.5859375000000000E+02
(PID.TID 0000.0001) %MON XC_min                       =   1.4062500000000000E+00
(PID.TID 0000.0001) %MON XC_mean                      =   1.8000000000000000E+02
(PID.TID 0000.0001) %MON XC_sd                        =   1.0391987692598804E+02
(PID.TID 0000.0001) %MON XG_max                       =   3.5718750000000000E+02
(PID.TID 0000.0001) %MON XG_min                       =   0.0000000000000000E+00
(PID.TID 0000.0001) %MON XG_mean                      =   1.7859375000000000E+02
(PID.TID 0000.0001) %MON XG_sd                        =   1.0391987692598804E+02
(PID.TID 0000.0001) %MON DXC_max                      =   3.1259246843154915E+05
(PID.TID 0000.0001) %MON DXC_min                      =   7.6737143816222988E+03
(PID.TID 0000.0001) %MON DXC_mean                     =   1.9908248704233844E+05
(PID.TID 0000.0001) %MON DXC_sd                       =   9.6190602240066684E+04
(PID.TID 0000.0001) %MON DXF_max                      =   3.1259246843154915E+05
(PID.TID 0000.0001) %MON DXF_min                      =   7.6737143816222988E+03
(PID.TID 0000.0001) %MON DXF_mean                     =   1.9908248704233844E+05
(PID.TID 0000.0001) %MON DXF_sd                       =   9.6190602240066684E+04
(PID.TID 0000.0001) %MON DXG_max                      =   3.1268664380260912E+05
(PID.TID 0000.0001) %MON DXG_min                      =   0.0000000000000000E+00
(PID.TID 0000.0001) %MON DXG_mean                     =   1.9902252711932667E+05
(PID.TID 0000.0001) %MON DXG_sd                       =   9.6314600686012433E+04
(PID.TID 0000.0001) %MON DXV_max                      =   3.1268664380260912E+05
(PID.TID 0000.0001) %MON DXV_min                      =   0.0000000000000000E+00
(PID.TID 0000.0001) %MON DXV_mean                     =   1.9902252711932667E+05
(PID.TID 0000.0001) %MON DXV_sd                       =   9.6314600686012433E+04
(PID.TID 0000.0001) %MON YC_max                       =   8.8593750000000000E+01
(PID.TID 0000.0001) %MON YC_min                       =  -8.8593750000000000E+01
(PID.TID 0000.0001) %MON YC_mean                      =   0.0000000000000000E+00
(PID.TID 0000.0001) %MON YC_sd                        =   5.1955180880375153E+01
(PID.TID 0000.0001) %MON YG_max                       =   8.7187500000000000E+01
(PID.TID 0000.0001) %MON YG_min                       =  -9.0000000000000000E+01
(PID.TID 0000.0001) %MON YG_mean                      =  -1.4062500000000000E+00
(PID.TID 0000.0001) %MON YG_sd                        =   5.1955180880375153E+01
(PID.TID 0000.0001) %MON DYC_max                      =   3.1268664380260912E+05
(PID.TID 0000.0001) %MON DYC_min                      =   3.1268664380260912E+05
(PID.TID 0000.0001) %MON DYC_mean                     =   3.1268664380262379E+05
(PID.TID 0000.0001) %MON DYC_sd                       =   1.4668330550193787E-08
(PID.TID 0000.0001) %MON DYF_max                      =   3.1268664380260912E+05
(PID.TID 0000.0001) %MON DYF_min                      =   3.1268664380260912E+05
(PID.TID 0000.0001) %MON DYF_mean                     =   3.1268664380262379E+05
(PID.TID 0000.0001) %MON DYF_sd                       =   1.4668330550193787E-08
(PID.TID 0000.0001) %MON DYG_max                      =   3.1268664380260912E+05
(PID.TID 0000.0001) %MON DYG_min                      =   3.1268664380260912E+05
(PID.TID 0000.0001) %MON DYG_mean                     =   3.1268664380262379E+05
(PID.TID 0000.0001) %MON DYG_sd                       =   1.4668330550193787E-08
(PID.TID 0000.0001) %MON DYU_max                      =   3.1268664380260912E+05
(PID.TID 0000.0001) %MON DYU_min                      =   3.1268664380260912E+05
(PID.TID 0000.0001) %MON DYU_mean                     =   3.1268664380262379E+05
(PID.TID 0000.0001) %MON DYU_sd                       =   1.4668330550193787E-08
(PID.TID 0000.0001) %MON RA_max                       =   9.7733676797555420E+10
(PID.TID 0000.0001) %MON RA_min                       =   2.3992270990190182E+09
(PID.TID 0000.0001) %MON RA_mean                      =   6.2244185031957382E+10
(PID.TID 0000.0001) %MON RA_sd                        =   3.0074496923945278E+10
(PID.TID 0000.0001) %MON RAW_max                      =   9.7733676797555420E+10
(PID.TID 0000.0001) %MON RAW_min                      =   2.3992270990190182E+09
(PID.TID 0000.0001) %MON RAW_mean                     =   6.2244185031957382E+10
(PID.TID 0000.0001) %MON RAW_sd                       =   3.0074496923945278E+10
(PID.TID 0000.0001) %MON RAS_max                      =   9.7763121221868164E+10
(PID.TID 0000.0001) %MON RAS_min                      =   0.0000000000000000E+00
(PID.TID 0000.0001) %MON RAS_mean                     =   6.2225438247156563E+10
(PID.TID 0000.0001) %MON RAS_sd                       =   3.0113265689232788E+10
(PID.TID 0000.0001) %MON RAZ_max                      =   9.7763121221868164E+10
(PID.TID 0000.0001) %MON RAZ_min                      =   0.0000000000000000E+00
(PID.TID 0000.0001) %MON RAZ_mean                     =   6.2225438247156563E+10
(PID.TID 0000.0001) %MON RAZ_sd                       =   3.0113265689232788E+10
(PID.TID 0000.0001) %MON AngleCS_max                  =   1.0000000000000000E+00
(PID.TID 0000.0001) %MON AngleCS_min                  =   1.0000000000000000E+00
(PID.TID 0000.0001) %MON AngleCS_mean                 =   1.0000000000000000E+00
(PID.TID 0000.0001) %MON AngleCS_sd                   =   0.0000000000000000E+00
(PID.TID 0000.0001) %MON AngleSN_max                  =   0.0000000000000000E+00
(PID.TID 0000.0001) %MON AngleSN_min                  =   0.0000000000000000E+00
(PID.TID 0000.0001) %MON AngleSN_mean                 =   0.0000000000000000E+00
(PID.TID 0000.0001) %MON AngleSN_sd                   =   0.0000000000000000E+00
(PID.TID 0000.0001) %MON fCori_max                    =   1.4579854531444176E-04
(PID.TID 0000.0001) %MON fCori_min                    =  -1.4579854531444176E-04
(PID.TID 0000.0001) %MON fCori_mean                   =   9.5291206566108788E-22
(PID.TID 0000.0001) %MON fCori_sd                     =   1.0312619976227602E-04
(PID.TID 0000.0001) %MON fCoriG_max                   =   1.4566679669713735E-04
(PID.TID 0000.0001) %MON fCoriG_min                   =  -1.4584247033980750E-04
(PID.TID 0000.0001) %MON fCoriG_mean                  =  -2.2787885990594938E-06
(PID.TID 0000.0001) %MON fCoriG_sd                    =   1.0310101939326063E-04
(PID.TID 0000.0001) %MON fCoriCos_max                 =   1.4579854531444176E-04
(PID.TID 0000.0001) %MON fCoriCos_min                 =   3.5791533929552697E-06
(PID.TID 0000.0001) %MON fCoriCos_mean                =   9.2855522572227709E-05
(PID.TID 0000.0001) %MON fCoriCos_sd                  =   4.4864964117306900E-05
(PID.TID 0000.0001) %MON time_tsnumber                =               5644800
(PID.TID 0000.0001) %MON time_secondsf                =   2.4385536000000000E+11
(PID.TID 0000.0001) %MON dynstat_eta_max              =   9.3755788342258450E-01
(PID.TID 0000.0001) %MON dynstat_eta_min              =  -1.7306042755481776E+00
(PID.TID 0000.0001) %MON dynstat_eta_mean             =   1.6246257108922902E-10
(PID.TID 0000.0001) %MON dynstat_eta_sd               =   6.5178731078585439E-01
(PID.TID 0000.0001) %MON dynstat_eta_del2             =   9.2891361698735429E-04
(PID.TID 0000.0001) %MON dynstat_uvel_max             =   1.5507010426340442E-01
(PID.TID 0000.0001) %MON dynstat_uvel_min             =  -1.8450839420854095E-01
(PID.TID 0000.0001) %MON dynstat_uvel_mean            =   2.9502714531933726E-03
(PID.TID 0000.0001) %MON dynstat_uvel_sd              =   1.3889038797601260E-02
(PID.TID 0000.0001) %MON dynstat_uvel_del2            =   3.8112943275887823E-05
(PID.TID 0000.0001) %MON dynstat_vvel_max             =   1.1197724506262370E-01
(PID.TID 0000.0001) %MON dynstat_vvel_min             =  -1.5223637120169622E-01
(PID.TID 0000.0001) %MON dynstat_vvel_mean            =  -1.9308448637590122E-04
(PID.TID 0000.0001) %MON dynstat_vvel_sd              =   6.3587600692689072E-03
(PID.TID 0000.0001) %MON dynstat_vvel_del2            =   2.6616594379894838E-05
(PID.TID 0000.0001) %MON dynstat_wvel_max             =   4.3080633446447992E-05
(PID.TID 0000.0001) %MON dynstat_wvel_min             =  -6.4970200391657162E-05
(PID.TID 0000.0001) %MON dynstat_wvel_mean            =  -3.6601022929591253E-22
(PID.TID 0000.0001) %MON dynstat_wvel_sd              =   1.9051103185233318E-06
(PID.TID 0000.0001) %MON dynstat_wvel_del2            =   1.3074537000181549E-08
(PID.TID 0000.0001) %MON dynstat_theta_max            =   2.9951462807691811E+01
(PID.TID 0000.0001) %MON dynstat_theta_min            =  -2.1378475686010163E+00
(PID.TID 0000.0001) %MON dynstat_theta_mean           =   3.7550907107470177E+00
(PID.TID 0000.0001) %MON dynstat_theta_sd             =   5.1497435058859971E+00
(PID.TID 0000.0001) %MON dynstat_theta_del2           =   2.2484814302737386E-03
(PID.TID 0000.0001) %MON dynstat_salt_max             =   3.7554077754206418E+01
(PID.TID 0000.0001) %MON dynstat_salt_min             =   3.1355930984643138E+01
(PID.TID 0000.0001) %MON dynstat_salt_mean            =   3.4543282271396990E+01
(PID.TID 0000.0001) %MON dynstat_salt_sd              =   3.5868549207265438E-01
(PID.TID 0000.0001) %MON dynstat_salt_del2            =   3.8184709121527621E-04
(PID.TID 0000.0001) %MON forcing_qnet_max             =   4.4937911987304688E+02
(PID.TID 0000.0001) %MON forcing_qnet_min             =  -2.0417861938476562E+02
(PID.TID 0000.0001) %MON forcing_qnet_mean            =  -1.7476785758605494E+01
(PID.TID 0000.0001) %MON forcing_qnet_sd              =   1.1366008303785441E+02
(PID.TID 0000.0001) %MON forcing_qnet_del2            =   2.8634827682350800E-01
(PID.TID 0000.0001) %MON forcing_qsw_max              =   0.0000000000000000E+00
(PID.TID 0000.0001) %MON forcing_qsw_min              =   0.0000000000000000E+00
(PID.TID 0000.0001) %MON forcing_qsw_mean             =   0.0000000000000000E+00
(PID.TID 0000.0001) %MON forcing_qsw_sd               =   0.0000000000000000E+00
(PID.TID 0000.0001) %MON forcing_qsw_del2             =   0.0000000000000000E+00
(PID.TID 0000.0001) %MON forcing_empmr_max            =   6.9206222512718796E-05
(PID.TID 0000.0001) %MON forcing_empmr_min            =  -1.5544422772961752E-04
(PID.TID 0000.0001) %MON forcing_empmr_mean           =   1.2460352661810301E-14
(PID.TID 0000.0001) %MON forcing_empmr_sd             =   2.4700019777611149E-05
(PID.TID 0000.0001) %MON forcing_empmr_del2           =   1.1591736879228609E-07
(PID.TID 0000.0001) %MON forcing_fu_max               =   2.8468748927116394E-01
(PID.TID 0000.0001) %MON forcing_fu_min               =  -1.5522694587707520E-01
(PID.TID 0000.0001) %MON forcing_fu_mean              =   1.7556170217892433E-02
(PID.TID 0000.0001) %MON forcing_fu_sd                =   9.0000334104050450E-02
(PID.TID 0000.0001) %MON forcing_fu_del2              =   2.6696712158131967E-04
(PID.TID 0000.0001) %MON forcing_fv_max               =   2.1343359351158142E-01
(PID.TID 0000.0001) %MON forcing_fv_min               =  -1.7404061555862427E-01
(PID.TID 0000.0001) %MON forcing_fv_mean              =  -5.8961451090369437E-03
(PID.TID 0000.0001) %MON forcing_fv_sd                =   4.6452039259649462E-02
(PID.TID 0000.0001) %MON forcing_fv_del2              =   1.8991860252816603E-04
(PID.TID 0000.0001) %MON advcfl_uvel_max              =   4.0045216386264210E-02
(PID.TID 0000.0001) %MON advcfl_vvel_max              =   2.1032594024274730E-02
(PID.TID 0000.0001) %MON advcfl_wvel_max              =   1.3150163344719480E-02
(PID.TID 0000.0001) %MON advcfl_W_hf_max              =   1.5498406799133672E-02
(PID.TID 0000.0001) %MON pe_b_mean                    =   5.8641869340709358E-04
(PID.TID 0000.0001) %MON ke_max                       =   1.7893934739356746E-02
(PID.TID 0000.0001) %MON ke_mean                      =   1.1152732963384502E-04
(PID.TID 0000.0001) %MON ke_vol                       =   1.1739855207380157E+18
(PID.TID 0000.0001) %MON vort_r_min                   =  -5.5333382194170067E-07
(PID.TID 0000.0001) %MON vort_r_max                   =   6.2092681877331846E-07
(PID.TID 0000.0001) %MON vort_a_mean                  =  -2.5798915502264678E-05
(PID.TID 0000.0001) %MON vort_a_sd                    =   7.3558772795087853E-05
(PID.TID 0000.0001) %MON vort_p_mean                  =  -3.0020960747216345E-05
(PID.TID 0000.0001) %MON vort_p_sd                    =   9.8090578536761918E-05
(PID.TID 0000.0001) %MON surfExpan_theta_mean         =  -3.2318359898147782E-07
(PID.TID 0000.0001) %MON surfExpan_salt_mean          =   2.1976907188860100E-08
(PID.TID 0000.0001) %MON trcstat_ptracer01_max        =                      NAN
(PID.TID 0000.0001) %MON trcstat_ptracer01_min        =                      NAN
(PID.TID 0000.0001) %MON trcstat_ptracer01_mean       =                      NAN
(PID.TID 0000.0001) %MON trcstat_ptracer01_sd         =                      NAN
(PID.TID 0000.0001) %MON trcstat_ptracer01_del2       =                      NAN
(PID.TID 0000.0001) %MON trcstat_ptracer02_max        =   7.7443426847457886E-01
(PID.TID 0000.0001) %MON trcstat_ptracer02_min        =   7.7357771033348399E-07
(PID.TID 0000.0001) %MON trcstat_ptracer02_mean       =   1.0102510745994015E-02
(PID.TID 0000.0001) %MON trcstat_ptracer02_sd         =   3.1851925620534134E-02
(PID.TID 0000.0001) %MON trcstat_ptracer02_del2       =   4.6204609583606527E-05
(PID.TID 0000.0001) %MON trcstat_ptracer03_max        =   2.1305871009826660E+00
(PID.TID 0000.0001) %MON trcstat_ptracer03_min        =   2.3391621652990580E-06
(PID.TID 0000.0001) %MON trcstat_ptracer03_mean       =   2.6446451498324312E-02
(PID.TID 0000.0001) %MON trcstat_ptracer03_sd         =   7.9563742610568089E-02
(PID.TID 0000.0001) %MON trcstat_ptracer03_del2       =   1.0485369840004214E-04
(PID.TID 0000.0001) %MON trcstat_ptracer04_max        =   5.5516395568847656E+01
(PID.TID 0000.0001) %MON trcstat_ptracer04_min        =   2.7343749025021680E-05
(PID.TID 0000.0001) %MON trcstat_ptracer04_mean       =   3.0319124172610458E+01
(PID.TID 0000.0001) %MON trcstat_ptracer04_sd         =   9.3093495048918609E+00
(PID.TID 0000.0001) %MON trcstat_ptracer04_del2       =   7.0414134335694068E-03
(PID.TID 0000.0001) %MON trcstat_ptracer05_max        =   3.4906260967254639E+00
(PID.TID 0000.0001) %MON trcstat_ptracer05_min        =   4.7107778489589691E-02
(PID.TID 0000.0001) %MON trcstat_ptracer05_mean       =   2.1106181285445795E+00
(PID.TID 0000.0001) %MON trcstat_ptracer05_sd         =   6.4916060620548233E-01
(PID.TID 0000.0001) %MON trcstat_ptracer05_del2       =   3.6658808103996363E-04
(PID.TID 0000.0001) %MON trcstat_ptracer06_max        =   1.8846359252929688E+02
(PID.TID 0000.0001) %MON trcstat_ptracer06_min        =   4.3886455893516541E-01
(PID.TID 0000.0001) %MON trcstat_ptracer06_mean       =   8.3739431197758023E+01
(PID.TID 0000.0001) %MON trcstat_ptracer06_sd         =   4.9673060416466988E+01
(PID.TID 0000.0001) %MON trcstat_ptracer06_del2       =   1.6543685326870849E-02
(PID.TID 0000.0001) %MON trcstat_ptracer07_max        =   6.0156327672302723E-03
(PID.TID 0000.0001) %MON trcstat_ptracer07_min        =   4.2254514482920058E-06
(PID.TID 0000.0001) %MON trcstat_ptracer07_mean       =   3.3385286198007915E-04
(PID.TID 0000.0001) %MON trcstat_ptracer07_sd         =   2.5058901193196362E-04
(PID.TID 0000.0001) %MON trcstat_ptracer07_del2       =   2.9408062113934520E-07
(PID.TID 0000.0001) %MON trcstat_ptracer08_max        =   1.5377122163772583E+01
(PID.TID 0000.0001) %MON trcstat_ptracer08_min        =  -2.0569450571201742E-02
(PID.TID 0000.0001) %MON trcstat_ptracer08_mean       =   1.2840572460318334E-01
(PID.TID 0000.0001) %MON trcstat_ptracer08_sd         =   8.1982712933266566E-01
(PID.TID 0000.0001) %MON trcstat_ptracer08_del2       =   2.2283040938965906E-03
(PID.TID 0000.0001) %MON trcstat_ptracer09_max        =   2.0502829551696777E+00
(PID.TID 0000.0001) %MON trcstat_ptracer09_min        =  -2.7425934094935656E-03
(PID.TID 0000.0001) %MON trcstat_ptracer09_mean       =   1.7120763280424445E-02
(PID.TID 0000.0001) %MON trcstat_ptracer09_sd         =   1.0931028391102209E-01
(PID.TID 0000.0001) %MON trcstat_ptracer09_del2       =   2.9710721251954543E-04
(PID.TID 0000.0001) %MON trcstat_ptracer10_max        =   1.2814268469810486E-01
(PID.TID 0000.0001) %MON trcstat_ptracer10_min        =  -1.7141208809334785E-04
(PID.TID 0000.0001) %MON trcstat_ptracer10_mean       =   1.0700477050265278E-03
(PID.TID 0000.0001) %MON trcstat_ptracer10_sd         =   6.8318927444388803E-03
(PID.TID 0000.0001) %MON trcstat_ptracer10_del2       =   1.8569200782471590E-05
(PID.TID 0000.0001) %MON trcstat_ptracer11_max        =   6.8241039116401225E-05
(PID.TID 0000.0001) %MON trcstat_ptracer11_min        =  -1.4861747388295043E-07
(PID.TID 0000.0001) %MON trcstat_ptracer11_mean       =   2.8553608963584911E-07
(PID.TID 0000.0001) %MON trcstat_ptracer11_sd         =   2.0377054782970131E-06
(PID.TID 0000.0001) %MON trcstat_ptracer11_del2       =   7.3259219136987665E-09
(PID.TID 0000.0001) %MON trcstat_ptracer12_max        =   2.2039030194282532E+01
(PID.TID 0000.0001) %MON trcstat_ptracer12_min        =   1.0012487905441958E-05
(PID.TID 0000.0001) %MON trcstat_ptracer12_mean       =   2.0327559796280092E-01
(PID.TID 0000.0001) %MON trcstat_ptracer12_sd         =   4.4197931066418567E-01
(PID.TID 0000.0001) %MON trcstat_ptracer12_del2       =   1.9617145228569750E-03
(PID.TID 0000.0001) %MON trcstat_ptracer13_max        =   2.9385373592376709E+00
(PID.TID 0000.0001) %MON trcstat_ptracer13_min        =   1.3349983873922611E-06
(PID.TID 0000.0001) %MON trcstat_ptracer13_mean       =   2.7103413061706789E-02
(PID.TID 0000.0001) %MON trcstat_ptracer13_sd         =   5.8930574755224757E-02
(PID.TID 0000.0001) %MON trcstat_ptracer13_del2       =   2.6156193638092999E-04
(PID.TID 0000.0001) %MON trcstat_ptracer14_max        =   1.8365858495235443E-01
(PID.TID 0000.0001) %MON trcstat_ptracer14_min        =   8.3437399212016317E-08
(PID.TID 0000.0001) %MON trcstat_ptracer14_mean       =   1.6939633163566743E-03
(PID.TID 0000.0001) %MON trcstat_ptracer14_sd         =   3.6831609222015473E-03
(PID.TID 0000.0001) %MON trcstat_ptracer14_del2       =   1.6347621023808124E-05
(PID.TID 0000.0001) %MON trcstat_ptracer15_max        =   4.0247123718261719E+01
(PID.TID 0000.0001) %MON trcstat_ptracer15_min        =  -1.3386267423629761E-01
(PID.TID 0000.0001) %MON trcstat_ptracer15_mean       =   1.5159485877440104E-01
(PID.TID 0000.0001) %MON trcstat_ptracer15_sd         =   4.1019145304019100E-01
(PID.TID 0000.0001) %MON trcstat_ptracer15_del2       =   2.1470211634402230E-03
(PID.TID 0000.0001) %MON trcstat_ptracer16_max        =   1.9047880778089166E-04
(PID.TID 0000.0001) %MON trcstat_ptracer16_min        =   1.3391438132004385E-11
(PID.TID 0000.0001) %MON trcstat_ptracer16_mean       =   7.4623307893104747E-07
(PID.TID 0000.0001) %MON trcstat_ptracer16_sd         =   2.4038234079072926E-06
(PID.TID 0000.0001) %MON trcstat_ptracer16_del2       =   1.2179256723758740E-08
(PID.TID 0000.0001) %MON trcstat_ptracer17_max        =                      NAN
(PID.TID 0000.0001) %MON trcstat_ptracer17_min        =                      NAN
(PID.TID 0000.0001) %MON trcstat_ptracer17_mean       =                      NAN
(PID.TID 0000.0001) %MON trcstat_ptracer17_sd         =                      NAN
(PID.TID 0000.0001) %MON trcstat_ptracer17_del2       =                      NAN
(PID.TID 0000.0001) %MON trcstat_ptracer18_max        =   7.1691323071718216E-01
(PID.TID 0000.0001) %MON trcstat_ptracer18_min        =   1.3917120580964060E-09
(PID.TID 0000.0001) %MON trcstat_ptracer18_mean       =   4.9194465606287050E-04
(PID.TID 0000.0001) %MON trcstat_ptracer18_sd         =   5.1451619238174718E-03
(PID.TID 0000.0001) %MON trcstat_ptracer18_del2       =   7.8193297181643797E-05
(PID.TID 0000.0001) %MON trcstat_ptracer19_max        =   7.1691323071718216E-01
(PID.TID 0000.0001) %MON trcstat_ptracer19_min        =   1.3917120580964060E-09
(PID.TID 0000.0001) %MON trcstat_ptracer19_mean       =   4.9194465606287050E-04
(PID.TID 0000.0001) %MON trcstat_ptracer19_sd         =   5.1451619238174718E-03
(PID.TID 0000.0001) %MON trcstat_ptracer19_del2       =   7.8193297181643797E-05
(PID.TID 0000.0001) %MON trcstat_ptracer20_max        =   7.1691323071718216E-01
(PID.TID 0000.0001) %MON trcstat_ptracer20_min        =   1.3917120580964060E-09
(PID.TID 0000.0001) %MON trcstat_ptracer20_mean       =   4.9194465606287050E-04
(PID.TID 0000.0001) %MON trcstat_ptracer20_sd         =   5.1451619238174718E-03
(PID.TID 0000.0001) %MON trcstat_ptracer20_del2       =   7.8193297181643797E-05
(PID.TID 0000.0001) %MON trcstat_ptracer21_max        =   7.1691323071718216E-01
(PID.TID 0000.0001) %MON trcstat_ptracer21_min        =   1.3917120580964060E-09
(PID.TID 0000.0001) %MON trcstat_ptracer21_mean       =   4.9194465606287050E-04
(PID.TID 0000.0001) %MON trcstat_ptracer21_sd         =   5.1451619238174718E-03
(PID.TID 0000.0001) %MON trcstat_ptracer21_del2       =   7.8193297181643797E-05
(PID.TID 0000.0001) %MON trcstat_ptracer22_max        =   7.1691323071718216E-01
(PID.TID 0000.0001) %MON trcstat_ptracer22_min        =   1.3917120580964060E-09
(PID.TID 0000.0001) %MON trcstat_ptracer22_mean       =   4.9194465606287050E-04
(PID.TID 0000.0001) %MON trcstat_ptracer22_sd         =   5.1451619238174718E-03
(PID.TID 0000.0001) %MON trcstat_ptracer22_del2       =   7.8193297181643797E-05
(PID.TID 0000.0001) %MON trcstat_ptracer23_max        =   7.1691323071718216E-01
(PID.TID 0000.0001) %MON trcstat_ptracer23_min        =   1.3917120580964060E-09
(PID.TID 0000.0001) %MON trcstat_ptracer23_mean       =   4.9194465606287050E-04
(PID.TID 0000.0001) %MON trcstat_ptracer23_sd         =   5.1451619238174718E-03
(PID.TID 0000.0001) %MON trcstat_ptracer23_del2       =   7.8193297181643797E-05
(PID.TID 0000.0001) %MON trcstat_ptracer24_max        =   7.1691323071718216E-01
(PID.TID 0000.0001) %MON trcstat_ptracer24_min        =   1.3917120580964060E-09
(PID.TID 0000.0001) %MON trcstat_ptracer24_mean       =   4.9194465606287050E-04
(PID.TID 0000.0001) %MON trcstat_ptracer24_sd         =   5.1451619238174718E-03
(PID.TID 0000.0001) %MON trcstat_ptracer24_del2       =   7.8193297181643797E-05
(PID.TID 0000.0001) %MON trcstat_ptracer25_max        =   7.1691323071718216E-01
(PID.TID 0000.0001) %MON trcstat_ptracer25_min        =   1.3917120580964060E-09
(PID.TID 0000.0001) %MON trcstat_ptracer25_mean       =   4.9194465606287050E-04
(PID.TID 0000.0001) %MON trcstat_ptracer25_sd         =   5.1451619238174718E-03
(PID.TID 0000.0001) %MON trcstat_ptracer25_del2       =   7.8193297181643797E-05
(PID.TID 0000.0001) %MON trcstat_ptracer26_max        =   7.1691323071718216E-01
(PID.TID 0000.0001) %MON trcstat_ptracer26_min        =   1.3917120580964060E-09
(PID.TID 0000.0001) %MON trcstat_ptracer26_mean       =   4.9194465606287050E-04
(PID.TID 0000.0001) %MON trcstat_ptracer26_sd         =   5.1451619238174718E-03
(PID.TID 0000.0001) %MON trcstat_ptracer26_del2       =   7.8193297181643797E-05
(PID.TID 0000.0001) %MON trcstat_ptracer27_max        =   7.1691323071718216E-01
(PID.TID 0000.0001) %MON trcstat_ptracer27_min        =   1.3917120580964060E-09
(PID.TID 0000.0001) %MON trcstat_ptracer27_mean       =   4.9194465606287050E-04
(PID.TID 0000.0001) %MON trcstat_ptracer27_sd         =   5.1451619238174718E-03
(PID.TID 0000.0001) %MON trcstat_ptracer27_del2       =   7.8193297181643797E-05
(PID.TID 0000.0001) %MON trcstat_ptracer28_max        =   7.1691323071718216E-01
(PID.TID 0000.0001) %MON trcstat_ptracer28_min        =   1.3917120580964060E-09
(PID.TID 0000.0001) %MON trcstat_ptracer28_mean       =   4.9194465606287050E-04
(PID.TID 0000.0001) %MON trcstat_ptracer28_sd         =   5.1451619238174718E-03
(PID.TID 0000.0001) %MON trcstat_ptracer28_del2       =   7.8193297181643797E-05
(PID.TID 0000.0001) %MON trcstat_ptracer29_max        =   7.1691323071718216E-01
(PID.TID 0000.0001) %MON trcstat_ptracer29_min        =   1.3917120580964060E-09
(PID.TID 0000.0001) %MON trcstat_ptracer29_mean       =   4.9194465606287050E-04
(PID.TID 0000.0001) %MON trcstat_ptracer29_sd         =   5.1451619238174718E-03
(PID.TID 0000.0001) %MON trcstat_ptracer29_del2       =   7.8193297181643797E-05
(PID.TID 0000.0001) %MON trcstat_ptracer30_max        =   7.1691323071718216E-01
(PID.TID 0000.0001) %MON trcstat_ptracer30_min        =   1.3917120580964060E-09
(PID.TID 0000.0001) %MON trcstat_ptracer30_mean       =   4.9194465606287050E-04
(PID.TID 0000.0001) %MON trcstat_ptracer30_sd         =   5.1451619238174718E-03
(PID.TID 0000.0001) %MON trcstat_ptracer30_del2       =   7.8193297181643797E-05
(PID.TID 0000.0001) %MON trcstat_ptracer31_max        =   7.1691323071718216E-01
(PID.TID 0000.0001) %MON trcstat_ptracer31_min        =   1.3917120580964060E-09
(PID.TID 0000.0001) %MON trcstat_ptracer31_mean       =   4.9194465606287050E-04
(PID.TID 0000.0001) %MON trcstat_ptracer31_sd         =   5.1451619238174718E-03
(PID.TID 0000.0001) %MON trcstat_ptracer31_del2       =   7.8193297181643797E-05
(PID.TID 0000.0001) %MON trcstat_ptracer32_max        =   7.1691323071718216E-01
(PID.TID 0000.0001) %MON trcstat_ptracer32_min        =   1.3917120580964060E-09
(PID.TID 0000.0001) %MON trcstat_ptracer32_mean       =   4.9194465606287050E-04
(PID.TID 0000.0001) %MON trcstat_ptracer32_sd         =   5.1451619238174718E-03
(PID.TID 0000.0001) %MON trcstat_ptracer32_del2       =   7.8193297181643797E-05
(PID.TID 0000.0001) %MON trcstat_ptracer33_max        =   7.1691323071718216E-01
(PID.TID 0000.0001) %MON trcstat_ptracer33_min        =   1.3917120580964060E-09
(PID.TID 0000.0001) %MON trcstat_ptracer33_mean       =   4.9194465606287050E-04
(PID.TID 0000.0001) %MON trcstat_ptracer33_sd         =   5.1451619238174718E-03
(PID.TID 0000.0001) %MON trcstat_ptracer33_del2       =   7.8193297181643797E-05
(PID.TID 0000.0001) %MON trcstat_ptracer34_max        =   7.1691323071718216E-01
(PID.TID 0000.0001) %MON trcstat_ptracer34_min        =   1.3917120580964060E-09
(PID.TID 0000.0001) %MON trcstat_ptracer34_mean       =   4.9194465606287050E-04
(PID.TID 0000.0001) %MON trcstat_ptracer34_sd         =   5.1451619238174718E-03
(PID.TID 0000.0001) %MON trcstat_ptracer34_del2       =   7.8193297181643797E-05
(PID.TID 0000.0001) %MON trcstat_ptracer35_max        =   7.1691323071718216E-01
(PID.TID 0000.0001) %MON trcstat_ptracer35_min        =   1.3917120580964060E-09
(PID.TID 0000.0001) %MON trcstat_ptracer35_mean       =   4.9194465606287050E-04
(PID.TID 0000.0001) %MON trcstat_ptracer35_sd         =   5.1451619238174718E-03
(PID.TID 0000.0001) %MON trcstat_ptracer35_del2       =   7.8193297181643797E-05
(PID.TID 0000.0001) %MON trcstat_ptracer36_max        =   7.1691323071718216E-01
(PID.TID 0000.0001) %MON trcstat_ptracer36_min        =   1.3917120580964060E-09
(PID.TID 0000.0001) %MON trcstat_ptracer36_mean       =   4.9194465606287050E-04
(PID.TID 0000.0001) %MON trcstat_ptracer36_sd         =   5.1451619238174718E-03
(PID.TID 0000.0001) %MON trcstat_ptracer36_del2       =   7.8193297181643797E-05
(PID.TID 0000.0001) %MON trcstat_ptracer37_max        =   7.1691323071718216E-01
(PID.TID 0000.0001) %MON trcstat_ptracer37_min        =   1.3917120580964060E-09
(PID.TID 0000.0001) %MON trcstat_ptracer37_mean       =   4.9194465606287050E-04
(PID.TID 0000.0001) %MON trcstat_ptracer37_sd         =   5.1451619238174718E-03
(PID.TID 0000.0001) %MON trcstat_ptracer37_del2       =   7.8193297181643797E-05
(PID.TID 0000.0001) %MON trcstat_ptracer38_max        =   7.1691323071718216E-01
(PID.TID 0000.0001) %MON trcstat_ptracer38_min        =   1.3917120580964060E-09
(PID.TID 0000.0001) %MON trcstat_ptracer38_mean       =   4.9194465606287050E-04
(PID.TID 0000.0001) %MON trcstat_ptracer38_sd         =   5.1451619238174718E-03
(PID.TID 0000.0001) %MON trcstat_ptracer38_del2       =   7.8193297181643797E-05
(PID.TID 0000.0001) %MON trcstat_ptracer39_max        =   7.1691323071718216E-01
(PID.TID 0000.0001) %MON trcstat_ptracer39_min        =   1.3917120580964060E-09
(PID.TID 0000.0001) %MON trcstat_ptracer39_mean       =   4.9194465606287050E-04
(PID.TID 0000.0001) %MON trcstat_ptracer39_sd         =   5.1451619238174718E-03
(PID.TID 0000.0001) %MON trcstat_ptracer39_del2       =   7.8193297181643797E-05
(PID.TID 0000.0001) %MON trcstat_ptracer40_max        =   7.1691323071718216E-01
(PID.TID 0000.0001) %MON trcstat_ptracer40_min        =   1.3917120580964060E-09
(PID.TID 0000.0001) %MON trcstat_ptracer40_mean       =   4.9194465606287050E-04
(PID.TID 0000.0001) %MON trcstat_ptracer40_sd         =   5.1451619238174718E-03
(PID.TID 0000.0001) %MON trcstat_ptracer40_del2       =   7.8193297181643797E-05
(PID.TID 0000.0001) %MON trcstat_ptracer41_max        =   7.1691323071718216E-01
(PID.TID 0000.0001) %MON trcstat_ptracer41_min        =   1.3917120580964060E-09
(PID.TID 0000.0001) %MON trcstat_ptracer41_mean       =   4.9194465606287050E-04
(PID.TID 0000.0001) %MON trcstat_ptracer41_sd         =   5.1451619238174718E-03
(PID.TID 0000.0001) %MON trcstat_ptracer41_del2       =   7.8193297181643797E-05
(PID.TID 0000.0001) %MON trcstat_ptracer42_max        =   7.1691323071718216E-01
(PID.TID 0000.0001) %MON trcstat_ptracer42_min        =   1.3917120580964060E-09
(PID.TID 0000.0001) %MON trcstat_ptracer42_mean       =   4.9194465606287050E-04
(PID.TID 0000.0001) %MON trcstat_ptracer42_sd         =   5.1451619238174718E-03
(PID.TID 0000.0001) %MON trcstat_ptracer42_del2       =   7.8193297181643797E-05
(PID.TID 0000.0001) %MON trcstat_ptracer43_max        =   7.1691323071718216E-01
(PID.TID 0000.0001) %MON trcstat_ptracer43_min        =   1.3917120580964060E-09
(PID.TID 0000.0001) %MON trcstat_ptracer43_mean       =   4.9194465606287050E-04
(PID.TID 0000.0001) %MON trcstat_ptracer43_sd         =   5.1451619238174718E-03
(PID.TID 0000.0001) %MON trcstat_ptracer43_del2       =   7.8193297181643797E-05
(PID.TID 0000.0001) %MON trcstat_ptracer44_max        =   7.1691323071718216E-01
(PID.TID 0000.0001) %MON trcstat_ptracer44_min        =   1.3917120580964060E-09
(PID.TID 0000.0001) %MON trcstat_ptracer44_mean       =   4.9194465606287050E-04
(PID.TID 0000.0001) %MON trcstat_ptracer44_sd         =   5.1451619238174718E-03
(PID.TID 0000.0001) %MON trcstat_ptracer44_del2       =   7.8193297181643797E-05
(PID.TID 0000.0001) %MON trcstat_ptracer45_max        =   7.1691323071718216E-01
(PID.TID 0000.0001) %MON trcstat_ptracer45_min        =   1.3917120580964060E-09
(PID.TID 0000.0001) %MON trcstat_ptracer45_mean       =   4.9194465606287050E-04
(PID.TID 0000.0001) %MON trcstat_ptracer45_sd         =   5.1451619238174718E-03
(PID.TID 0000.0001) %MON trcstat_ptracer45_del2       =   7.8193297181643797E-05
(PID.TID 0000.0001) %MON trcstat_ptracer46_max        =   7.1691323071718216E-01
(PID.TID 0000.0001) %MON trcstat_ptracer46_min        =   1.3917120580964060E-09
(PID.TID 0000.0001) %MON trcstat_ptracer46_mean       =   4.9194465606287050E-04
(PID.TID 0000.0001) %MON trcstat_ptracer46_sd         =   5.1451619238174718E-03
(PID.TID 0000.0001) %MON trcstat_ptracer46_del2       =   7.8193297181643797E-05
(PID.TID 0000.0001) %MON trcstat_ptracer47_max        =   7.1691323071718216E-01
(PID.TID 0000.0001) %MON trcstat_ptracer47_min        =   1.3917120580964060E-09
(PID.TID 0000.0001) %MON trcstat_ptracer47_mean       =   4.9194465606287050E-04
(PID.TID 0000.0001) %MON trcstat_ptracer47_sd         =   5.1451619238174718E-03
(PID.TID 0000.0001) %MON trcstat_ptracer47_del2       =   7.8193297181643797E-05
(PID.TID 0000.0001) %MON trcstat_ptracer48_max        =   7.1691323071718216E-01
(PID.TID 0000.0001) %MON trcstat_ptracer48_min        =   1.3917120580964060E-09
(PID.TID 0000.0001) %MON trcstat_ptracer48_mean       =   4.9194465606287050E-04
(PID.TID 0000.0001) %MON trcstat_ptracer48_sd         =   5.1451619238174718E-03
(PID.TID 0000.0001) %MON trcstat_ptracer48_del2       =   7.8193297181643797E-05
(PID.TID 0000.0001) %MON trcstat_ptracer49_max        =   7.1691323071718216E-01
(PID.TID 0000.0001) %MON trcstat_ptracer49_min        =   1.3917120580964060E-09
(PID.TID 0000.0001) %MON trcstat_ptracer49_mean       =   4.9194465606287050E-04
(PID.TID 0000.0001) %MON trcstat_ptracer49_sd         =   5.1451619238174718E-03
(PID.TID 0000.0001) %MON trcstat_ptracer49_del2       =   7.8193297181643797E-05
(PID.TID 0000.0001) %MON trcstat_ptracer50_max        =   7.1691323071718216E-01
(PID.TID 0000.0001) %MON trcstat_ptracer50_min        =   1.3917120580964060E-09
(PID.TID 0000.0001) %MON trcstat_ptracer50_mean       =   4.9194465606287050E-04
(PID.TID 0000.0001) %MON trcstat_ptracer50_sd         =   5.1451619238174718E-03
(PID.TID 0000.0001) %MON trcstat_ptracer50_del2       =   7.8193297181643797E-05
(PID.TID 0000.0001) %MON trcstat_ptracer51_max        =   7.1691323071718216E-01
(PID.TID 0000.0001) %MON trcstat_ptracer51_min        =   1.3917120580964060E-09
(PID.TID 0000.0001) %MON trcstat_ptracer51_mean       =   4.9194465606287050E-04
(PID.TID 0000.0001) %MON trcstat_ptracer51_sd         =   5.1451619238174718E-03
(PID.TID 0000.0001) %MON trcstat_ptracer51_del2       =   7.8193297181643797E-05
(PID.TID 0000.0001) %MON trcstat_ptracer52_max        =   7.1691323071718216E-01
(PID.TID 0000.0001) %MON trcstat_ptracer52_min        =   1.3917120580964060E-09
(PID.TID 0000.0001) %MON trcstat_ptracer52_mean       =   4.9194465606287050E-04
(PID.TID 0000.0001) %MON trcstat_ptracer52_sd         =   5.1451619238174718E-03
(PID.TID 0000.0001) %MON trcstat_ptracer52_del2       =   7.8193297181643797E-05
(PID.TID 0000.0001) %MON trcstat_ptracer53_max        =   7.1691323071718216E-01
(PID.TID 0000.0001) %MON trcstat_ptracer53_min        =   1.3917120580964060E-09
(PID.TID 0000.0001) %MON trcstat_ptracer53_mean       =   4.9194465606287050E-04
(PID.TID 0000.0001) %MON trcstat_ptracer53_sd         =   5.1451619238174718E-03
(PID.TID 0000.0001) %MON trcstat_ptracer53_del2       =   7.8193297181643797E-05
(PID.TID 0000.0001) %MON trcstat_ptracer54_max        =   7.1691323071718216E-01
(PID.TID 0000.0001) %MON trcstat_ptracer54_min        =   1.3917120580964060E-09
(PID.TID 0000.0001) %MON trcstat_ptracer54_mean       =   4.9194465606287050E-04
(PID.TID 0000.0001) %MON trcstat_ptracer54_sd         =   5.1451619238174718E-03
(PID.TID 0000.0001) %MON trcstat_ptracer54_del2       =   7.8193297181643797E-05
(PID.TID 0000.0001) %MON trcstat_ptracer55_max        =   7.1691323071718216E-01
(PID.TID 0000.0001) %MON trcstat_ptracer55_min        =   1.3917120580964060E-09
(PID.TID 0000.0001) %MON trcstat_ptracer55_mean       =   4.9194465606287050E-04
(PID.TID 0000.0001) %MON trcstat_ptracer55_sd         =   5.1451619238174718E-03
(PID.TID 0000.0001) %MON trcstat_ptracer55_del2       =   7.8193297181643797E-05
(PID.TID 0000.0001) %MON trcstat_ptracer56_max        =   7.1691323071718216E-01
(PID.TID 0000.0001) %MON trcstat_ptracer56_min        =   1.3917120580964060E-09
(PID.TID 0000.0001) %MON trcstat_ptracer56_mean       =   4.9194465606287050E-04
(PID.TID 0000.0001) %MON trcstat_ptracer56_sd         =   5.1451619238174718E-03
(PID.TID 0000.0001) %MON trcstat_ptracer56_del2       =   7.8193297181643797E-05
(PID.TID 0000.0001) %MON trcstat_ptracer57_max        =   7.1691323071718216E-01
(PID.TID 0000.0001) %MON trcstat_ptracer57_min        =   1.3917120580964060E-09
(PID.TID 0000.0001) %MON trcstat_ptracer57_mean       =   4.9194465606287050E-04
(PID.TID 0000.0001) %MON trcstat_ptracer57_sd         =   5.1451619238174718E-03
(PID.TID 0000.0001) %MON trcstat_ptracer57_del2       =   7.8193297181643797E-05
(PID.TID 0000.0001) %MON trcstat_ptracer58_max        =   7.1691323071718216E-01
(PID.TID 0000.0001) %MON trcstat_ptracer58_min        =   1.3917120580964060E-09
(PID.TID 0000.0001) %MON trcstat_ptracer58_mean       =   4.9194465606287050E-04
(PID.TID 0000.0001) %MON trcstat_ptracer58_sd         =   5.1451619238174718E-03
(PID.TID 0000.0001) %MON trcstat_ptracer58_del2       =   7.8193297181643797E-05
(PID.TID 0000.0001) %MON trcstat_ptracer59_max        =   7.1691323071718216E-01
(PID.TID 0000.0001) %MON trcstat_ptracer59_min        =   1.3917120580964060E-09
(PID.TID 0000.0001) %MON trcstat_ptracer59_mean       =   4.9194465606287050E-04
(PID.TID 0000.0001) %MON trcstat_ptracer59_sd         =   5.1451619238174718E-03
(PID.TID 0000.0001) %MON trcstat_ptracer59_del2       =   7.8193297181643797E-05
(PID.TID 0000.0001) %MON trcstat_ptracer60_max        =   7.1691323071718216E-01
(PID.TID 0000.0001) %MON trcstat_ptracer60_min        =   1.3917120580964060E-09
(PID.TID 0000.0001) %MON trcstat_ptracer60_mean       =   4.9194465606287050E-04
(PID.TID 0000.0001) %MON trcstat_ptracer60_sd         =   5.1451619238174718E-03
(PID.TID 0000.0001) %MON trcstat_ptracer60_del2       =   7.8193297181643797E-05
(PID.TID 0000.0001) %MON trcstat_ptracer61_max        =   7.1691323071718216E-01
(PID.TID 0000.0001) %MON trcstat_ptracer61_min        =   1.3917120580964060E-09
(PID.TID 0000.0001) %MON trcstat_ptracer61_mean       =   4.9194465606287050E-04
(PID.TID 0000.0001) %MON trcstat_ptracer61_sd         =   5.1451619238174718E-03
(PID.TID 0000.0001) %MON trcstat_ptracer61_del2       =   7.8193297181643797E-05
(PID.TID 0000.0001) %MON trcstat_ptracer62_max        =   7.1691323071718216E-01
(PID.TID 0000.0001) %MON trcstat_ptracer62_min        =   1.3917120580964060E-09
(PID.TID 0000.0001) %MON trcstat_ptracer62_mean       =   4.9194465606287050E-04
(PID.TID 0000.0001) %MON trcstat_ptracer62_sd         =   5.1451619238174718E-03
(PID.TID 0000.0001) %MON trcstat_ptracer62_del2       =   7.8193297181643797E-05
(PID.TID 0000.0001) %MON trcstat_ptracer63_max        =   7.1691323071718216E-01
(PID.TID 0000.0001) %MON trcstat_ptracer63_min        =   1.3917120580964060E-09
(PID.TID 0000.0001) %MON trcstat_ptracer63_mean       =   4.9194465606287050E-04
(PID.TID 0000.0001) %MON trcstat_ptracer63_sd         =   5.1451619238174718E-03
(PID.TID 0000.0001) %MON trcstat_ptracer63_del2       =   7.8193297181643797E-05
(PID.TID 0000.0001) %MON trcstat_ptracer64_max        =   7.1691323071718216E-01
(PID.TID 0000.0001) %MON trcstat_ptracer64_min        =   1.3917120580964060E-09
(PID.TID 0000.0001) %MON trcstat_ptracer64_mean       =   4.9194465606287050E-04
(PID.TID 0000.0001) %MON trcstat_ptracer64_sd         =   5.1451619238174718E-03
(PID.TID 0000.0001) %MON trcstat_ptracer64_del2       =   7.8193297181643797E-05
(PID.TID 0000.0001) %MON trcstat_ptracer65_max        =   7.1691323071718216E-01
(PID.TID 0000.0001) %MON trcstat_ptracer65_min        =   1.3917120580964060E-09
(PID.TID 0000.0001) %MON trcstat_ptracer65_mean       =   4.9194465606287050E-04
(PID.TID 0000.0001) %MON trcstat_ptracer65_sd         =   5.1451619238174718E-03
(PID.TID 0000.0001) %MON trcstat_ptracer65_del2       =   7.8193297181643797E-05
(PID.TID 0000.0001) %MON trcstat_ptracer66_max        =   7.1691323071718216E-01
(PID.TID 0000.0001) %MON trcstat_ptracer66_min        =   1.3917120580964060E-09
(PID.TID 0000.0001) %MON trcstat_ptracer66_mean       =   4.9194465606287050E-04
(PID.TID 0000.0001) %MON trcstat_ptracer66_sd         =   5.1451619238174718E-03
(PID.TID 0000.0001) %MON trcstat_ptracer66_del2       =   7.8193297181643797E-05
(PID.TID 0000.0001) %MON trcstat_ptracer67_max        =   7.1691323071718216E-01
(PID.TID 0000.0001) %MON trcstat_ptracer67_min        =   1.3917120580964060E-09
(PID.TID 0000.0001) %MON trcstat_ptracer67_mean       =   4.9194465606287050E-04
(PID.TID 0000.0001) %MON trcstat_ptracer67_sd         =   5.1451619238174718E-03
(PID.TID 0000.0001) %MON trcstat_ptracer67_del2       =   7.8193297181643797E-05
(PID.TID 0000.0001) %MON trcstat_ptracer68_max        =   7.1691323071718216E-01
(PID.TID 0000.0001) %MON trcstat_ptracer68_min        =   1.3917120580964060E-09
(PID.TID 0000.0001) %MON trcstat_ptracer68_mean       =   4.9194465606287050E-04
(PID.TID 0000.0001) %MON trcstat_ptracer68_sd         =   5.1451619238174718E-03
(PID.TID 0000.0001) %MON trcstat_ptracer68_del2       =   7.8193297181643797E-05
(PID.TID 0000.0001) %MON trcstat_ptracer69_max        =   7.1691323071718216E-01
(PID.TID 0000.0001) %MON trcstat_ptracer69_min        =   1.3917120580964060E-09
(PID.TID 0000.0001) %MON trcstat_ptracer69_mean       =   4.9194465606287050E-04
(PID.TID 0000.0001) %MON trcstat_ptracer69_sd         =   5.1451619238174718E-03
(PID.TID 0000.0001) %MON trcstat_ptracer69_del2       =   7.8193297181643797E-05
(PID.TID 0000.0001) %MON trcstat_ptracer70_max        =   7.1691323071718216E-01
(PID.TID 0000.0001) %MON trcstat_ptracer70_min        =   1.3917120580964060E-09
(PID.TID 0000.0001) %MON trcstat_ptracer70_mean       =   4.9194465606287050E-04
(PID.TID 0000.0001) %MON trcstat_ptracer70_sd         =   5.1451619238174718E-03
(PID.TID 0000.0001) %MON trcstat_ptracer70_del2       =   7.8193297181643797E-05
(PID.TID 0000.0001) %MON trcstat_ptracer71_max        =   7.1691323071718216E-01
(PID.TID 0000.0001) %MON trcstat_ptracer71_min        =   1.3917120580964060E-09
(PID.TID 0000.0001) %MON trcstat_ptracer71_mean       =   4.9194465606287050E-04
(PID.TID 0000.0001) %MON trcstat_ptracer71_sd         =   5.1451619238174718E-03
(PID.TID 0000.0001) %MON trcstat_ptracer71_del2       =   7.8193297181643797E-05
(PID.TID 0000.0001) %MON trcstat_ptracer72_max        =   7.1691323071718216E-01
(PID.TID 0000.0001) %MON trcstat_ptracer72_min        =   1.3917120580964060E-09
(PID.TID 0000.0001) %MON trcstat_ptracer72_mean       =   4.9194465606287050E-04
(PID.TID 0000.0001) %MON trcstat_ptracer72_sd         =   5.1451619238174718E-03
(PID.TID 0000.0001) %MON trcstat_ptracer72_del2       =   7.8193297181643797E-05
(PID.TID 0000.0001) %MON trcstat_ptracer73_max        =   7.1691323071718216E-01
(PID.TID 0000.0001) %MON trcstat_ptracer73_min        =   1.3917120580964060E-09
(PID.TID 0000.0001) %MON trcstat_ptracer73_mean       =   4.9194465606287050E-04
(PID.TID 0000.0001) %MON trcstat_ptracer73_sd         =   5.1451619238174718E-03
(PID.TID 0000.0001) %MON trcstat_ptracer73_del2       =   7.8193297181643797E-05
(PID.TID 0000.0001) %MON trcstat_ptracer74_max        =   7.1691323071718216E-01
(PID.TID 0000.0001) %MON trcstat_ptracer74_min        =   1.3917120580964060E-09
(PID.TID 0000.0001) %MON trcstat_ptracer74_mean       =   4.9194465606287050E-04
(PID.TID 0000.0001) %MON trcstat_ptracer74_sd         =   5.1451619238174718E-03
(PID.TID 0000.0001) %MON trcstat_ptracer74_del2       =   7.8193297181643797E-05
(PID.TID 0000.0001) %MON trcstat_ptracer75_max        =   7.1691323071718216E-01
(PID.TID 0000.0001) %MON trcstat_ptracer75_min        =   1.3917120580964060E-09
(PID.TID 0000.0001) %MON trcstat_ptracer75_mean       =   4.9194465606287050E-04
(PID.TID 0000.0001) %MON trcstat_ptracer75_sd         =   5.1451619238174718E-03
(PID.TID 0000.0001) %MON trcstat_ptracer75_del2       =   7.8193297181643797E-05
(PID.TID 0000.0001) %MON trcstat_ptracer76_max        =   7.1691323071718216E-01
(PID.TID 0000.0001) %MON trcstat_ptracer76_min        =   1.3917120580964060E-09
(PID.TID 0000.0001) %MON trcstat_ptracer76_mean       =   4.9194465606287050E-04
(PID.TID 0000.0001) %MON trcstat_ptracer76_sd         =   5.1451619238174718E-03
(PID.TID 0000.0001) %MON trcstat_ptracer76_del2       =   7.8193297181643797E-05
(PID.TID 0000.0001) %MON trcstat_ptracer77_max        =   7.1691323071718216E-01
(PID.TID 0000.0001) %MON trcstat_ptracer77_min        =   1.3917120580964060E-09
(PID.TID 0000.0001) %MON trcstat_ptracer77_mean       =   4.9194465606287050E-04
(PID.TID 0000.0001) %MON trcstat_ptracer77_sd         =   5.1451619238174718E-03
(PID.TID 0000.0001) %MON trcstat_ptracer77_del2       =   7.8193297181643797E-05
(PID.TID 0000.0001) %MON trcstat_ptracer78_max        =   7.1691323071718216E-01
(PID.TID 0000.0001) %MON trcstat_ptracer78_min        =   1.3917120580964060E-09
(PID.TID 0000.0001) %MON trcstat_ptracer78_mean       =   4.9194465606287050E-04
(PID.TID 0000.0001) %MON trcstat_ptracer78_sd         =   5.1451619238174718E-03
(PID.TID 0000.0001) %MON trcstat_ptracer78_del2       =   7.8193297181643797E-05
(PID.TID 0000.0001) %MON trcstat_ptracer79_max        =   7.1691323071718216E-01
(PID.TID 0000.0001) %MON trcstat_ptracer79_min        =   1.3917120580964060E-09
(PID.TID 0000.0001) %MON trcstat_ptracer79_mean       =   4.9194465606287050E-04
(PID.TID 0000.0001) %MON trcstat_ptracer79_sd         =   5.1451619238174718E-03
(PID.TID 0000.0001) %MON trcstat_ptracer79_del2       =   7.8193297181643797E-05
(PID.TID 0000.0001) %MON trcstat_ptracer80_max        =   7.1691323071718216E-01
(PID.TID 0000.0001) %MON trcstat_ptracer80_min        =   1.3917120580964060E-09
(PID.TID 0000.0001) %MON trcstat_ptracer80_mean       =   4.9194465606287050E-04
(PID.TID 0000.0001) %MON trcstat_ptracer80_sd         =   5.1451619238174718E-03
(PID.TID 0000.0001) %MON trcstat_ptracer80_del2       =   7.8193297181643797E-05
(PID.TID 0000.0001) %MON trcstat_ptracer81_max        =   7.1691323071718216E-01
(PID.TID 0000.0001) %MON trcstat_ptracer81_min        =   1.3917120580964060E-09
(PID.TID 0000.0001) %MON trcstat_ptracer81_mean       =   4.9194465606287050E-04
(PID.TID 0000.0001) %MON trcstat_ptracer81_sd         =   5.1451619238174718E-03
(PID.TID 0000.0001) %MON trcstat_ptracer81_del2       =   7.8193297181643797E-05
(PID.TID 0000.0001) %MON trcstat_ptracer82_max        =   7.1691323071718216E-01
(PID.TID 0000.0001) %MON trcstat_ptracer82_min        =   1.3917120580964060E-09
(PID.TID 0000.0001) %MON trcstat_ptracer82_mean       =   4.9194465606287050E-04
(PID.TID 0000.0001) %MON trcstat_ptracer82_sd         =   5.1451619238174718E-03
(PID.TID 0000.0001) %MON trcstat_ptracer82_del2       =   7.8193297181643797E-05
(PID.TID 0000.0001) %MON trcstat_ptracer83_max        =   7.1691323071718216E-01
(PID.TID 0000.0001) %MON trcstat_ptracer83_min        =   1.3917120580964060E-09
(PID.TID 0000.0001) %MON trcstat_ptracer83_mean       =   4.9194465606287050E-04
(PID.TID 0000.0001) %MON trcstat_ptracer83_sd         =   5.1451619238174718E-03
(PID.TID 0000.0001) %MON trcstat_ptracer83_del2       =   7.8193297181643797E-05
(PID.TID 0000.0001) %MON trcstat_ptracer84_max        =   7.1691323071718216E-01
(PID.TID 0000.0001) %MON trcstat_ptracer84_min        =   1.3917120580964060E-09
(PID.TID 0000.0001) %MON trcstat_ptracer84_mean       =   4.9194465606287050E-04
(PID.TID 0000.0001) %MON trcstat_ptracer84_sd         =   5.1451619238174718E-03
(PID.TID 0000.0001) %MON trcstat_ptracer84_del2       =   7.8193297181643797E-05
(PID.TID 0000.0001) %MON trcstat_ptracer85_max        =   7.1691323071718216E-01
(PID.TID 0000.0001) %MON trcstat_ptracer85_min        =   1.3917120580964060E-09
(PID.TID 0000.0001) %MON trcstat_ptracer85_mean       =   4.9194465606287050E-04
(PID.TID 0000.0001) %MON trcstat_ptracer85_sd         =   5.1451619238174718E-03
(PID.TID 0000.0001) %MON trcstat_ptracer85_del2       =   7.8193297181643797E-05
(PID.TID 0000.0001) %MON trcstat_ptracer86_max        =   7.1691323071718216E-01
(PID.TID 0000.0001) %MON trcstat_ptracer86_min        =   1.3917120580964060E-09
(PID.TID 0000.0001) %MON trcstat_ptracer86_mean       =   4.9194465606287050E-04
(PID.TID 0000.0001) %MON trcstat_ptracer86_sd         =   5.1451619238174718E-03
(PID.TID 0000.0001) %MON trcstat_ptracer86_del2       =   7.8193297181643797E-05
(PID.TID 0000.0001) %MON trcstat_ptracer87_max        =   7.1691323071718216E-01
(PID.TID 0000.0001) %MON trcstat_ptracer87_min        =   1.3917120580964060E-09
(PID.TID 0000.0001) %MON trcstat_ptracer87_mean       =   4.9194465606287050E-04
(PID.TID 0000.0001) %MON trcstat_ptracer87_sd         =   5.1451619238174718E-03
(PID.TID 0000.0001) %MON trcstat_ptracer87_del2       =   7.8193297181643797E-05
(PID.TID 0000.0001) %MON trcstat_ptracer88_max        =   7.1691323071718216E-01
(PID.TID 0000.0001) %MON trcstat_ptracer88_min        =   1.3917120580964060E-09
(PID.TID 0000.0001) %MON trcstat_ptracer88_mean       =   4.9194465606287050E-04
(PID.TID 0000.0001) %MON trcstat_ptracer88_sd         =   5.1451619238174718E-03
(PID.TID 0000.0001) %MON trcstat_ptracer88_del2       =   7.8193297181643797E-05
(PID.TID 0000.0001) %MON trcstat_ptracer89_max        =   7.1691323071718216E-01
(PID.TID 0000.0001) %MON trcstat_ptracer89_min        =   1.3917120580964060E-09
(PID.TID 0000.0001) %MON trcstat_ptracer89_mean       =   4.9194465606287050E-04
(PID.TID 0000.0001) %MON trcstat_ptracer89_sd         =   5.1451619238174718E-03
(PID.TID 0000.0001) %MON trcstat_ptracer89_del2       =   7.8193297181643797E-05
(PID.TID 0000.0001) %MON trcstat_ptracer90_max        =   7.1691323071718216E-01
(PID.TID 0000.0001) %MON trcstat_ptracer90_min        =   1.3917120580964060E-09
(PID.TID 0000.0001) %MON trcstat_ptracer90_mean       =   4.9194465606287050E-04
(PID.TID 0000.0001) %MON trcstat_ptracer90_sd         =   5.1451619238174718E-03
(PID.TID 0000.0001) %MON trcstat_ptracer90_del2       =   7.8193297181643797E-05
(PID.TID 0000.0001) %MON trcstat_ptracer91_max        =   7.1691323071718216E-01
(PID.TID 0000.0001) %MON trcstat_ptracer91_min        =   1.3917120580964060E-09
(PID.TID 0000.0001) %MON trcstat_ptracer91_mean       =   4.9194465606287050E-04
(PID.TID 0000.0001) %MON trcstat_ptracer91_sd         =   5.1451619238174718E-03
(PID.TID 0000.0001) %MON trcstat_ptracer91_del2       =   7.8193297181643797E-05
(PID.TID 0000.0001) %MON trcstat_ptracer92_max        =   7.1691323071718216E-01
(PID.TID 0000.0001) %MON trcstat_ptracer92_min        =   1.3917120580964060E-09
(PID.TID 0000.0001) %MON trcstat_ptracer92_mean       =   4.9194465606287050E-04
(PID.TID 0000.0001) %MON trcstat_ptracer92_sd         =   5.1451619238174718E-03
(PID.TID 0000.0001) %MON trcstat_ptracer92_del2       =   7.8193297181643797E-05
(PID.TID 0000.0001) %MON trcstat_ptracer93_max        =   7.1691323071718216E-01
(PID.TID 0000.0001) %MON trcstat_ptracer93_min        =   1.3917120580964060E-09
(PID.TID 0000.0001) %MON trcstat_ptracer93_mean       =   4.9194465606287050E-04
(PID.TID 0000.0001) %MON trcstat_ptracer93_sd         =   5.1451619238174718E-03
(PID.TID 0000.0001) %MON trcstat_ptracer93_del2       =   7.8193297181643797E-05
(PID.TID 0000.0001) %MON trcstat_ptracer94_max        =   7.1691323071718216E-01
(PID.TID 0000.0001) %MON trcstat_ptracer94_min        =   1.3917120580964060E-09
(PID.TID 0000.0001) %MON trcstat_ptracer94_mean       =   4.9194465606287050E-04
(PID.TID 0000.0001) %MON trcstat_ptracer94_sd         =   5.1451619238174718E-03
(PID.TID 0000.0001) %MON trcstat_ptracer94_del2       =   7.8193297181643797E-05
(PID.TID 0000.0001) %MON trcstat_ptracer95_max        =   7.1691323071718216E-01
(PID.TID 0000.0001) %MON trcstat_ptracer95_min        =   1.3917120580964060E-09
(PID.TID 0000.0001) %MON trcstat_ptracer95_mean       =   4.9194465606287050E-04
(PID.TID 0000.0001) %MON trcstat_ptracer95_sd         =   5.1451619238174718E-03
(PID.TID 0000.0001) %MON trcstat_ptracer95_del2       =   7.8193297181643797E-05
(PID.TID 0000.0001) %MON trcstat_ptracer96_max        =   6.9899041950702667E+00
(PID.TID 0000.0001) %MON trcstat_ptracer96_min        =   1.3569192436335697E-08
(PID.TID 0000.0001) %MON trcstat_ptracer96_mean       =   4.7964603901285794E-03
(PID.TID 0000.0001) %MON trcstat_ptracer96_sd         =   5.0165328735341255E-02
(PID.TID 0000.0001) %MON trcstat_ptracer96_del2       =   7.6238464609541996E-04
(PID.TID 0000.0001) %MON trcstat_ptracer97_max        =   6.9899041950702667E+00
(PID.TID 0000.0001) %MON trcstat_ptracer97_min        =   1.3569192436335697E-08
(PID.TID 0000.0001) %MON trcstat_ptracer97_mean       =   4.7964603901285794E-03
(PID.TID 0000.0001) %MON trcstat_ptracer97_sd         =   5.0165328735341255E-02
(PID.TID 0000.0001) %MON trcstat_ptracer97_del2       =   7.6238464609541996E-04
(PID.TID 0000.0001) %MON time_tsnumber                =               5644801
(PID.TID 0000.0001) %MON time_secondsf                =   2.4385540320000000E+11
(PID.TID 0000.0001) %MON dynstat_eta_max              =   9.3711923053630530E-01
(PID.TID 0000.0001) %MON dynstat_eta_min              =  -1.7305068608986975E+00
(PID.TID 0000.0001) %MON dynstat_eta_mean             =   1.6246257487269889E-10
(PID.TID 0000.0001) %MON dynstat_eta_sd               =   6.5174294624010964E-01
(PID.TID 0000.0001) %MON dynstat_eta_del2             =   9.2916548180735142E-04
(PID.TID 0000.0001) %MON dynstat_uvel_max             =   1.5513369191489287E-01
(PID.TID 0000.0001) %MON dynstat_uvel_min             =  -1.8453487673594793E-01
(PID.TID 0000.0001) %MON dynstat_uvel_mean            =   2.9501853655047689E-03
(PID.TID 0000.0001) %MON dynstat_uvel_sd              =   1.3888245927797463E-02
(PID.TID 0000.0001) %MON dynstat_uvel_del2            =   3.8115539865670760E-05
(PID.TID 0000.0001) %MON dynstat_vvel_max             =   1.1196082331801557E-01
(PID.TID 0000.0001) %MON dynstat_vvel_min             =  -1.5166835089545888E-01
(PID.TID 0000.0001) %MON dynstat_vvel_mean            =  -1.9221357240846535E-04
(PID.TID 0000.0001) %MON dynstat_vvel_sd              =   6.3571349841719665E-03
(PID.TID 0000.0001) %MON dynstat_vvel_del2            =   2.6613086542045497E-05
(PID.TID 0000.0001) %MON dynstat_wvel_max             =   4.3063427626979797E-05
(PID.TID 0000.0001) %MON dynstat_wvel_min             =  -6.4970094182436355E-05
(PID.TID 0000.0001) %MON dynstat_wvel_mean            =  -7.3905911684751561E-23
(PID.TID 0000.0001) %MON dynstat_wvel_sd              =   1.9039109380105337E-06
(PID.TID 0000.0001) %MON dynstat_wvel_del2            =   1.3084115229147395E-08
(PID.TID 0000.0001) %MON dynstat_theta_max            =   2.9953784819706151E+01
(PID.TID 0000.0001) %MON dynstat_theta_min            =  -2.1379251179878707E+00
(PID.TID 0000.0001) %MON dynstat_theta_mean           =   3.7551449719968204E+00
(PID.TID 0000.0001) %MON dynstat_theta_sd             =   5.1497928609322026E+00
(PID.TID 0000.0001) %MON dynstat_theta_del2           =   2.2450162450492919E-03
(PID.TID 0000.0001) %MON dynstat_salt_max             =   3.7553833793841186E+01
(PID.TID 0000.0001) %MON dynstat_salt_min             =   3.1355599749520685E+01
(PID.TID 0000.0001) %MON dynstat_salt_mean            =   3.4543282692406400E+01
(PID.TID 0000.0001) %MON dynstat_salt_sd              =   3.5868437918066193E-01
(PID.TID 0000.0001) %MON dynstat_salt_del2            =   3.8099260787749148E-04
(PID.TID 0000.0001) %MON forcing_qnet_max             =   4.5173381042480469E+02
(PID.TID 0000.0001) %MON forcing_qnet_min             =  -2.1320401000976562E+02
(PID.TID 0000.0001) %MON forcing_qnet_mean            =  -1.7634591469579000E+01
(PID.TID 0000.0001) %MON forcing_qnet_sd              =   1.1599881404185476E+02
(PID.TID 0000.0001) %MON forcing_qnet_del2            =   2.7302567191348992E-01
(PID.TID 0000.0001) %MON forcing_qsw_max              =   0.0000000000000000E+00
(PID.TID 0000.0001) %MON forcing_qsw_min              =   0.0000000000000000E+00
(PID.TID 0000.0001) %MON forcing_qsw_mean             =   0.0000000000000000E+00
(PID.TID 0000.0001) %MON forcing_qsw_sd               =   0.0000000000000000E+00
(PID.TID 0000.0001) %MON forcing_qsw_del2             =   0.0000000000000000E+00
(PID.TID 0000.0001) %MON forcing_empmr_max            =   6.9206222512718796E-05
(PID.TID 0000.0001) %MON forcing_empmr_min            =  -1.5544422772961752E-04
(PID.TID 0000.0001) %MON forcing_empmr_mean           =   1.2460352661810301E-14
(PID.TID 0000.0001) %MON forcing_empmr_sd             =   2.4700019777611149E-05
(PID.TID 0000.0001) %MON forcing_empmr_del2           =   1.1591736879228609E-07
(PID.TID 0000.0001) %MON forcing_fu_max               =   2.6936699450016022E-01
(PID.TID 0000.0001) %MON forcing_fu_min               =  -1.5727265179157257E-01
(PID.TID 0000.0001) %MON forcing_fu_mean              =   1.7831973356732405E-02
(PID.TID 0000.0001) %MON forcing_fu_sd                =   8.9620299147479751E-02
(PID.TID 0000.0001) %MON forcing_fu_del2              =   2.4782395373364142E-04
(PID.TID 0000.0001) %MON forcing_fv_max               =   1.9744335860013962E-01
(PID.TID 0000.0001) %MON forcing_fv_min               =  -1.5944199264049530E-01
(PID.TID 0000.0001) %MON forcing_fv_mean              =  -6.4503818001954896E-03
(PID.TID 0000.0001) %MON forcing_fv_sd                =   4.4276273939354197E-02
(PID.TID 0000.0001) %MON forcing_fv_del2              =   1.7990220506046566E-04
(PID.TID 0000.0001) %MON advcfl_uvel_max              =   4.0061637225570698E-02
(PID.TID 0000.0001) %MON advcfl_vvel_max              =   2.0954117767882585E-02
(PID.TID 0000.0001) %MON advcfl_wvel_max              =   1.3147981225896959E-02
(PID.TID 0000.0001) %MON advcfl_W_hf_max              =   1.5495835016235700E-02
(PID.TID 0000.0001) %MON pe_b_mean                    =   5.8633886579121611E-04
(PID.TID 0000.0001) %MON ke_max                       =   1.7885149972186300E-02
(PID.TID 0000.0001) %MON ke_mean                      =   1.1150737021517801E-04
(PID.TID 0000.0001) %MON ke_vol                       =   1.1739855207380157E+18
(PID.TID 0000.0001) %MON vort_r_min                   =  -5.5446608387695888E-07
(PID.TID 0000.0001) %MON vort_r_max                   =   6.2111605841996909E-07
(PID.TID 0000.0001) %MON vort_a_mean                  =  -2.5798915502264590E-05
(PID.TID 0000.0001) %MON vort_a_sd                    =   7.3558772869366382E-05
(PID.TID 0000.0001) %MON vort_p_mean                  =  -3.0020960747216240E-05
(PID.TID 0000.0001) %MON vort_p_sd                    =   9.8090578046796075E-05
(PID.TID 0000.0001) %MON surfExpan_theta_mean         =  -2.9532654695924761E-07
(PID.TID 0000.0001) %MON surfExpan_salt_mean          =   2.3754721100881155E-08
(PID.TID 0000.0001) %MON trcstat_ptracer01_max        =                      NAN
(PID.TID 0000.0001) %MON trcstat_ptracer01_min        =                      NAN
(PID.TID 0000.0001) %MON trcstat_ptracer01_mean       =                      NAN
(PID.TID 0000.0001) %MON trcstat_ptracer01_sd         =                      NAN
(PID.TID 0000.0001) %MON trcstat_ptracer01_del2       =                      NAN
(PID.TID 0000.0001) %MON trcstat_ptracer02_max        =   4.4164375145869961E-01
(PID.TID 0000.0001) %MON trcstat_ptracer02_min        =   2.7080944100752161E-07
(PID.TID 0000.0001) %MON trcstat_ptracer02_mean       =   5.3989695858905869E-03
(PID.TID 0000.0001) %MON trcstat_ptracer02_sd         =   2.2308187735868387E-02
(PID.TID 0000.0001) %MON trcstat_ptracer02_del2       =   4.5946010583169110E-05
(PID.TID 0000.0001) %MON trcstat_ptracer03_max        =   2.4283728670570270E+00
(PID.TID 0000.0001) %MON trcstat_ptracer03_min        =   2.7531571203027796E-06
(PID.TID 0000.0001) %MON trcstat_ptracer03_mean       =   3.0288293686766655E-02
(PID.TID 0000.0001) %MON trcstat_ptracer03_sd         =   8.9380743195829601E-02
(PID.TID 0000.0001) %MON trcstat_ptracer03_del2       =   1.1706311983186912E-04
(PID.TID 0000.0001) %MON trcstat_ptracer04_max        =   5.5517122774792981E+01
(PID.TID 0000.0001) %MON trcstat_ptracer04_min        =   1.8266849855878129E-04
(PID.TID 0000.0001) %MON trcstat_ptracer04_mean       =   3.0320057207107151E+01
(PID.TID 0000.0001) %MON trcstat_ptracer04_sd         =   9.3074394682413324E+00
(PID.TID 0000.0001) %MON trcstat_ptracer04_del2       =   7.2116437519608003E-03
(PID.TID 0000.0001) %MON trcstat_ptracer05_max        =   3.4906181110433425E+00
(PID.TID 0000.0001) %MON trcstat_ptracer05_min        =   4.7204362980925840E-02
(PID.TID 0000.0001) %MON trcstat_ptracer05_mean       =   2.1106225935934892E+00
(PID.TID 0000.0001) %MON trcstat_ptracer05_sd         =   6.4915303224176057E-01
(PID.TID 0000.0001) %MON trcstat_ptracer05_del2       =   3.7298675922604684E-04
(PID.TID 0000.0001) %MON trcstat_ptracer06_max        =   1.8844211582233015E+02
(PID.TID 0000.0001) %MON trcstat_ptracer06_min        =   4.3433852788417970E-01
(PID.TID 0000.0001) %MON trcstat_ptracer06_mean       =   8.3739598707069803E+01
(PID.TID 0000.0001) %MON trcstat_ptracer06_sd         =   4.9672648624907524E+01
(PID.TID 0000.0001) %MON trcstat_ptracer06_del2       =   1.6834672654773293E-02
(PID.TID 0000.0001) %MON trcstat_ptracer07_max        =   1.3877660153928241E-03
(PID.TID 0000.0001) %MON trcstat_ptracer07_min        =   4.1312902129194104E-06
(PID.TID 0000.0001) %MON trcstat_ptracer07_mean       =   3.2965723050713407E-04
(PID.TID 0000.0001) %MON trcstat_ptracer07_sd         =   2.1710162366102867E-04
(PID.TID 0000.0001) %MON trcstat_ptracer07_del2       =   2.1261205863002024E-07
(PID.TID 0000.0001) %MON trcstat_ptracer08_max        =   1.5360529245795899E+01
(PID.TID 0000.0001) %MON trcstat_ptracer08_min        =  -1.9827195930399874E-02
(PID.TID 0000.0001) %MON trcstat_ptracer08_mean       =   1.2913463508195086E-01
(PID.TID 0000.0001) %MON trcstat_ptracer08_sd         =   8.2101502070708432E-01
(PID.TID 0000.0001) %MON trcstat_ptracer08_del2       =   2.5246183403930520E-03
(PID.TID 0000.0001) %MON trcstat_ptracer09_max        =   2.0480705661061198E+00
(PID.TID 0000.0001) %MON trcstat_ptracer09_min        =  -2.6436261240533167E-03
(PID.TID 0000.0001) %MON trcstat_ptracer09_mean       =   1.7217951344260116E-02
(PID.TID 0000.0001) %MON trcstat_ptracer09_sd         =   1.0946866942761124E-01
(PID.TID 0000.0001) %MON trcstat_ptracer09_del2       =   3.3661577871907361E-04
(PID.TID 0000.0001) %MON trcstat_ptracer10_max        =   1.2800441038163249E-01
(PID.TID 0000.0001) %MON trcstat_ptracer10_min        =  -1.6522663275333229E-04
(PID.TID 0000.0001) %MON trcstat_ptracer10_mean       =   1.0761219590162572E-03
(PID.TID 0000.0001) %MON trcstat_ptracer10_sd         =   6.8417918392257027E-03
(PID.TID 0000.0001) %MON trcstat_ptracer10_del2       =   2.1038486169942101E-05
(PID.TID 0000.0001) %MON trcstat_ptracer11_max        =   7.2884347094747599E-05
(PID.TID 0000.0001) %MON trcstat_ptracer11_min        =  -1.4242501234091477E-07
(PID.TID 0000.0001) %MON trcstat_ptracer11_mean       =   2.9554179589522781E-07
(PID.TID 0000.0001) %MON trcstat_ptracer11_sd         =   2.0840820339539323E-06
(PID.TID 0000.0001) %MON trcstat_ptracer11_del2       =   7.6767816035766658E-09
(PID.TID 0000.0001) %MON trcstat_ptracer12_max        =   2.2128361616233107E+01
(PID.TID 0000.0001) %MON trcstat_ptracer12_min        =   1.0037389934398436E-05
(PID.TID 0000.0001) %MON trcstat_ptracer12_mean       =   2.0209669464810370E-01
(PID.TID 0000.0001) %MON trcstat_ptracer12_sd         =   4.3744745112050060E-01
(PID.TID 0000.0001) %MON trcstat_ptracer12_del2       =   1.9715667914591843E-03
(PID.TID 0000.0001) %MON trcstat_ptracer13_max        =   2.9504482154977478E+00
(PID.TID 0000.0001) %MON trcstat_ptracer13_min        =   1.3383186579197914E-06
(PID.TID 0000.0001) %MON trcstat_ptracer13_mean       =   2.6946225953080494E-02
(PID.TID 0000.0001) %MON trcstat_ptracer13_sd         =   5.8326326816066747E-02
(PID.TID 0000.0001) %MON trcstat_ptracer13_del2       =   2.6287557219455794E-04
(PID.TID 0000.0001) %MON trcstat_ptracer14_max        =   1.8440301346860924E-01
(PID.TID 0000.0001) %MON trcstat_ptracer14_min        =   8.3644916119986960E-08
(PID.TID 0000.0001) %MON trcstat_ptracer14_mean       =   1.6841391220675309E-03
(PID.TID 0000.0001) %MON trcstat_ptracer14_sd         =   3.6453954260041717E-03
(PID.TID 0000.0001) %MON trcstat_ptracer14_del2       =   1.6429723262159871E-05
(PID.TID 0000.0001) %MON trcstat_ptracer15_max        =   4.0320701012435642E+01
(PID.TID 0000.0001) %MON trcstat_ptracer15_min        =  -1.3275923482410759E-01
(PID.TID 0000.0001) %MON trcstat_ptracer15_mean       =   1.5140868741514904E-01
(PID.TID 0000.0001) %MON trcstat_ptracer15_sd         =   4.0999370177065775E-01
(PID.TID 0000.0001) %MON trcstat_ptracer15_del2       =   2.1477730116975019E-03
(PID.TID 0000.0001) %MON trcstat_ptracer16_max        =   1.9122778000541660E-04
(PID.TID 0000.0001) %MON trcstat_ptracer16_min        =   1.3445481716746443E-11
(PID.TID 0000.0001) %MON trcstat_ptracer16_mean       =   7.4585416412185997E-07
(PID.TID 0000.0001) %MON trcstat_ptracer16_sd         =   2.3844626354568302E-06
(PID.TID 0000.0001) %MON trcstat_ptracer16_del2       =   1.2193191215582324E-08
(PID.TID 0000.0001) %MON trcstat_ptracer17_max        =                      NAN
(PID.TID 0000.0001) %MON trcstat_ptracer17_min        =                      NAN
(PID.TID 0000.0001) %MON trcstat_ptracer17_mean       =                      NAN
(PID.TID 0000.0001) %MON trcstat_ptracer17_sd         =                      NAN
(PID.TID 0000.0001) %MON trcstat_ptracer17_del2       =                      NAN
(PID.TID 0000.0001) %MON trcstat_ptracer18_max        =   6.3097482801179750E-01
(PID.TID 0000.0001) %MON trcstat_ptracer18_min        =   1.3249538188136409E-09
(PID.TID 0000.0001) %MON trcstat_ptracer18_mean       =   4.7505781491547112E-04
(PID.TID 0000.0001) %MON trcstat_ptracer18_sd         =   4.7875160992891371E-03
(PID.TID 0000.0001) %MON trcstat_ptracer18_del2       =   7.1119299915991884E-05
(PID.TID 0000.0001) %MON trcstat_ptracer19_max        =   6.3705107635627012E-01
(PID.TID 0000.0001) %MON trcstat_ptracer19_min        =   1.3236330300852082E-09
(PID.TID 0000.0001) %MON trcstat_ptracer19_mean       =   4.7912404006482921E-04
(PID.TID 0000.0001) %MON trcstat_ptracer19_sd         =   4.8360717778141915E-03
(PID.TID 0000.0001) %MON trcstat_ptracer19_del2       =   7.1632437732894292E-05
(PID.TID 0000.0001) %MON trcstat_ptracer20_max        =   6.4141719909676354E-01
(PID.TID 0000.0001) %MON trcstat_ptracer20_min        =   1.3249538189202612E-09
(PID.TID 0000.0001) %MON trcstat_ptracer20_mean       =   4.7590970216646955E-04
(PID.TID 0000.0001) %MON trcstat_ptracer20_sd         =   4.8126836505124034E-03
(PID.TID 0000.0001) %MON trcstat_ptracer20_del2       =   7.1988770063235498E-05
(PID.TID 0000.0001) %MON trcstat_ptracer21_max        =   6.3705107635627012E-01
(PID.TID 0000.0001) %MON trcstat_ptracer21_min        =   1.3236330300852082E-09
(PID.TID 0000.0001) %MON trcstat_ptracer21_mean       =   4.7136209520679884E-04
(PID.TID 0000.0001) %MON trcstat_ptracer21_sd         =   4.7742418686863713E-03
(PID.TID 0000.0001) %MON trcstat_ptracer21_del2       =   7.1518397002702145E-05
(PID.TID 0000.0001) %MON trcstat_ptracer22_max        =   6.3705107635627012E-01
(PID.TID 0000.0001) %MON trcstat_ptracer22_min        =   1.3236330300852082E-09
(PID.TID 0000.0001) %MON trcstat_ptracer22_mean       =   5.0155851228263193E-04
(PID.TID 0000.0001) %MON trcstat_ptracer22_sd         =   5.0432472805067305E-03
(PID.TID 0000.0001) %MON trcstat_ptracer22_del2       =   7.2460105383409350E-05
(PID.TID 0000.0001) %MON trcstat_ptracer23_max        =   6.3705107635627012E-01
(PID.TID 0000.0001) %MON trcstat_ptracer23_min        =   1.3236330300852082E-09
(PID.TID 0000.0001) %MON trcstat_ptracer23_mean       =   4.8217819393045133E-04
(PID.TID 0000.0001) %MON trcstat_ptracer23_sd         =   4.8450868764666538E-03
(PID.TID 0000.0001) %MON trcstat_ptracer23_del2       =   7.1778449652742438E-05
(PID.TID 0000.0001) %MON trcstat_ptracer24_max        =   6.4141719909676354E-01
(PID.TID 0000.0001) %MON trcstat_ptracer24_min        =   1.3249538189202612E-09
(PID.TID 0000.0001) %MON trcstat_ptracer24_mean       =   4.9849634123537282E-04
(PID.TID 0000.0001) %MON trcstat_ptracer24_sd         =   4.9985991864587281E-03
(PID.TID 0000.0001) %MON trcstat_ptracer24_del2       =   7.2460055492762899E-05
(PID.TID 0000.0001) %MON trcstat_ptracer25_max        =   6.3705107635627012E-01
(PID.TID 0000.0001) %MON trcstat_ptracer25_min        =   1.3236330300852082E-09
(PID.TID 0000.0001) %MON trcstat_ptracer25_mean       =   4.7543720138399921E-04
(PID.TID 0000.0001) %MON trcstat_ptracer25_sd         =   4.8176227963864513E-03
(PID.TID 0000.0001) %MON trcstat_ptracer25_del2       =   7.1716557219406185E-05
(PID.TID 0000.0001) %MON trcstat_ptracer26_max        =   6.3705107635627012E-01
(PID.TID 0000.0001) %MON trcstat_ptracer26_min        =   1.3236330300852082E-09
(PID.TID 0000.0001) %MON trcstat_ptracer26_mean       =   4.7825938244887880E-04
(PID.TID 0000.0001) %MON trcstat_ptracer26_sd         =   4.8308126098330420E-03
(PID.TID 0000.0001) %MON trcstat_ptracer26_del2       =   7.1656970357189843E-05
(PID.TID 0000.0001) %MON trcstat_ptracer27_max        =   6.3097482801179750E-01
(PID.TID 0000.0001) %MON trcstat_ptracer27_min        =   1.3249538188136409E-09
(PID.TID 0000.0001) %MON trcstat_ptracer27_mean       =   4.8201868773743500E-04
(PID.TID 0000.0001) %MON trcstat_ptracer27_sd         =   4.8335150335152149E-03
(PID.TID 0000.0001) %MON trcstat_ptracer27_del2       =   7.1125327012857230E-05
(PID.TID 0000.0001) %MON trcstat_ptracer28_max        =   6.3705107635627012E-01
(PID.TID 0000.0001) %MON trcstat_ptracer28_min        =   1.3236330300852082E-09
(PID.TID 0000.0001) %MON trcstat_ptracer28_mean       =   4.9792795762262606E-04
(PID.TID 0000.0001) %MON trcstat_ptracer28_sd         =   5.0368341174326665E-03
(PID.TID 0000.0001) %MON trcstat_ptracer28_del2       =   7.2824532383647657E-05
(PID.TID 0000.0001) %MON trcstat_ptracer29_max        =   6.3705107635627012E-01
(PID.TID 0000.0001) %MON trcstat_ptracer29_min        =   1.3236330300852082E-09
(PID.TID 0000.0001) %MON trcstat_ptracer29_mean       =   4.7763154345699789E-04
(PID.TID 0000.0001) %MON trcstat_ptracer29_sd         =   4.8315550540278763E-03
(PID.TID 0000.0001) %MON trcstat_ptracer29_del2       =   7.1801439261744748E-05
(PID.TID 0000.0001) %MON trcstat_ptracer30_max        =   6.3705107635627012E-01
(PID.TID 0000.0001) %MON trcstat_ptracer30_min        =   1.3236330300852082E-09
(PID.TID 0000.0001) %MON trcstat_ptracer30_mean       =   4.6847700211279168E-04
(PID.TID 0000.0001) %MON trcstat_ptracer30_sd         =   4.7515700617021010E-03
(PID.TID 0000.0001) %MON trcstat_ptracer30_del2       =   7.1386889597909047E-05
(PID.TID 0000.0001) %MON trcstat_ptracer31_max        =   6.4141719909676354E-01
(PID.TID 0000.0001) %MON trcstat_ptracer31_min        =   1.3249538189202612E-09
(PID.TID 0000.0001) %MON trcstat_ptracer31_mean       =   5.2805193863214150E-04
(PID.TID 0000.0001) %MON trcstat_ptracer31_sd         =   5.1538242520354606E-03
(PID.TID 0000.0001) %MON trcstat_ptracer31_del2       =   7.2356380193299054E-05
(PID.TID 0000.0001) %MON trcstat_ptracer32_max        =   6.3097482801179750E-01
(PID.TID 0000.0001) %MON trcstat_ptracer32_min        =   1.3249538188136409E-09
(PID.TID 0000.0001) %MON trcstat_ptracer32_mean       =   5.1194410225013909E-04
(PID.TID 0000.0001) %MON trcstat_ptracer32_sd         =   5.0452155762671569E-03
(PID.TID 0000.0001) %MON trcstat_ptracer32_del2       =   7.1641120542739040E-05
(PID.TID 0000.0001) %MON trcstat_ptracer33_max        =   6.3705107635627012E-01
(PID.TID 0000.0001) %MON trcstat_ptracer33_min        =   1.3236330300852082E-09
(PID.TID 0000.0001) %MON trcstat_ptracer33_mean       =   4.6547170591324557E-04
(PID.TID 0000.0001) %MON trcstat_ptracer33_sd         =   4.7231757843548003E-03
(PID.TID 0000.0001) %MON trcstat_ptracer33_del2       =   7.1251435064640021E-05
(PID.TID 0000.0001) %MON trcstat_ptracer34_max        =   6.3097482801179750E-01
(PID.TID 0000.0001) %MON trcstat_ptracer34_min        =   1.3249538188136409E-09
(PID.TID 0000.0001) %MON trcstat_ptracer34_mean       =   5.3703602664012789E-04
(PID.TID 0000.0001) %MON trcstat_ptracer34_sd         =   5.2580406384887214E-03
(PID.TID 0000.0001) %MON trcstat_ptracer34_del2       =   7.2015542282902266E-05
(PID.TID 0000.0001) %MON trcstat_ptracer35_max        =   6.3097482801179750E-01
(PID.TID 0000.0001) %MON trcstat_ptracer35_min        =   1.3249538188136409E-09
(PID.TID 0000.0001) %MON trcstat_ptracer35_mean       =   5.2423891428619060E-04
(PID.TID 0000.0001) %MON trcstat_ptracer35_sd         =   5.1679172718082115E-03
(PID.TID 0000.0001) %MON trcstat_ptracer35_del2       =   7.1976822628445618E-05
(PID.TID 0000.0001) %MON trcstat_ptracer36_max        =   6.3705107635627012E-01
(PID.TID 0000.0001) %MON trcstat_ptracer36_min        =   1.3236330300852082E-09
(PID.TID 0000.0001) %MON trcstat_ptracer36_mean       =   4.9764209093163447E-04
(PID.TID 0000.0001) %MON trcstat_ptracer36_sd         =   5.0120501986451555E-03
(PID.TID 0000.0001) %MON trcstat_ptracer36_del2       =   7.2427908235089827E-05
(PID.TID 0000.0001) %MON trcstat_ptracer37_max        =   6.3705107635627012E-01
(PID.TID 0000.0001) %MON trcstat_ptracer37_min        =   1.3236330300852082E-09
(PID.TID 0000.0001) %MON trcstat_ptracer37_mean       =   4.7247774984188624E-04
(PID.TID 0000.0001) %MON trcstat_ptracer37_sd         =   4.7831259431443379E-03
(PID.TID 0000.0001) %MON trcstat_ptracer37_del2       =   7.1623287744268410E-05
(PID.TID 0000.0001) %MON trcstat_ptracer38_max        =   6.3705107635627012E-01
(PID.TID 0000.0001) %MON trcstat_ptracer38_min        =   1.3236330300852082E-09
(PID.TID 0000.0001) %MON trcstat_ptracer38_mean       =   4.6692367676206420E-04
(PID.TID 0000.0001) %MON trcstat_ptracer38_sd         =   4.7387956730681573E-03
(PID.TID 0000.0001) %MON trcstat_ptracer38_del2       =   7.1324545428435866E-05
(PID.TID 0000.0001) %MON trcstat_ptracer39_max        =   6.3097482801179750E-01
(PID.TID 0000.0001) %MON trcstat_ptracer39_min        =   1.3249538188136409E-09
(PID.TID 0000.0001) %MON trcstat_ptracer39_mean       =   5.3238427540819820E-04
(PID.TID 0000.0001) %MON trcstat_ptracer39_sd         =   5.2326404695332198E-03
(PID.TID 0000.0001) %MON trcstat_ptracer39_del2       =   7.2107047747323069E-05
(PID.TID 0000.0001) %MON trcstat_ptracer40_max        =   6.3705107635627012E-01
(PID.TID 0000.0001) %MON trcstat_ptracer40_min        =   1.3236330300852082E-09
(PID.TID 0000.0001) %MON trcstat_ptracer40_mean       =   4.7719158904547523E-04
(PID.TID 0000.0001) %MON trcstat_ptracer40_sd         =   4.8224940092123966E-03
(PID.TID 0000.0001) %MON trcstat_ptracer40_del2       =   7.1626890186902051E-05
(PID.TID 0000.0001) %MON trcstat_ptracer41_max        =   6.3705107635627012E-01
(PID.TID 0000.0001) %MON trcstat_ptracer41_min        =   1.3236330300852082E-09
(PID.TID 0000.0001) %MON trcstat_ptracer41_mean       =   4.7694824655486993E-04
(PID.TID 0000.0001) %MON trcstat_ptracer41_sd         =   4.8232106528824231E-03
(PID.TID 0000.0001) %MON trcstat_ptracer41_del2       =   7.1752094870356254E-05
(PID.TID 0000.0001) %MON trcstat_ptracer42_max        =   6.3705107635627012E-01
(PID.TID 0000.0001) %MON trcstat_ptracer42_min        =   1.3236330300852082E-09
(PID.TID 0000.0001) %MON trcstat_ptracer42_mean       =   4.7581429623008416E-04
(PID.TID 0000.0001) %MON trcstat_ptracer42_sd         =   4.8213449304639784E-03
(PID.TID 0000.0001) %MON trcstat_ptracer42_del2       =   7.1731153909841233E-05
(PID.TID 0000.0001) %MON trcstat_ptracer43_max        =   6.3705107635627012E-01
(PID.TID 0000.0001) %MON trcstat_ptracer43_min        =   1.3236330300852082E-09
(PID.TID 0000.0001) %MON trcstat_ptracer43_mean       =   5.1538815633931246E-04
(PID.TID 0000.0001) %MON trcstat_ptracer43_sd         =   5.1056328601572255E-03
(PID.TID 0000.0001) %MON trcstat_ptracer43_del2       =   7.2301484931040227E-05
(PID.TID 0000.0001) %MON trcstat_ptracer44_max        =   6.3097482801179750E-01
(PID.TID 0000.0001) %MON trcstat_ptracer44_min        =   1.3249538188136409E-09
(PID.TID 0000.0001) %MON trcstat_ptracer44_mean       =   4.7066987350285875E-04
(PID.TID 0000.0001) %MON trcstat_ptracer44_sd         =   4.7453508811410956E-03
(PID.TID 0000.0001) %MON trcstat_ptracer44_del2       =   7.0903492209796530E-05
(PID.TID 0000.0001) %MON trcstat_ptracer45_max        =   6.3097482801179750E-01
(PID.TID 0000.0001) %MON trcstat_ptracer45_min        =   1.3249538188136409E-09
(PID.TID 0000.0001) %MON trcstat_ptracer45_mean       =   4.9347654219169244E-04
(PID.TID 0000.0001) %MON trcstat_ptracer45_sd         =   4.8905209180898478E-03
(PID.TID 0000.0001) %MON trcstat_ptracer45_del2       =   7.1019834939929727E-05
(PID.TID 0000.0001) %MON trcstat_ptracer46_max        =   6.3705107635627012E-01
(PID.TID 0000.0001) %MON trcstat_ptracer46_min        =   1.3236330300852082E-09
(PID.TID 0000.0001) %MON trcstat_ptracer46_mean       =   4.6978508824254789E-04
(PID.TID 0000.0001) %MON trcstat_ptracer46_sd         =   4.7615716084332144E-03
(PID.TID 0000.0001) %MON trcstat_ptracer46_del2       =   7.1460566932563920E-05
(PID.TID 0000.0001) %MON trcstat_ptracer47_max        =   6.3705107635627012E-01
(PID.TID 0000.0001) %MON trcstat_ptracer47_min        =   1.3236330300852082E-09
(PID.TID 0000.0001) %MON trcstat_ptracer47_mean       =   4.7357351865730187E-04
(PID.TID 0000.0001) %MON trcstat_ptracer47_sd         =   4.7897141048230899E-03
(PID.TID 0000.0001) %MON trcstat_ptracer47_del2       =   7.1647334936422144E-05
(PID.TID 0000.0001) %MON trcstat_ptracer48_max        =   6.4141719909676354E-01
(PID.TID 0000.0001) %MON trcstat_ptracer48_min        =   1.3249538189202612E-09
(PID.TID 0000.0001) %MON trcstat_ptracer48_mean       =   4.8945737940097743E-04
(PID.TID 0000.0001) %MON trcstat_ptracer48_sd         =   4.9106621826288327E-03
(PID.TID 0000.0001) %MON trcstat_ptracer48_del2       =   7.2094789348552116E-05
(PID.TID 0000.0001) %MON trcstat_ptracer49_max        =   6.3705107635627012E-01
(PID.TID 0000.0001) %MON trcstat_ptracer49_min        =   1.3236330300852082E-09
(PID.TID 0000.0001) %MON trcstat_ptracer49_mean       =   4.8908502655392041E-04
(PID.TID 0000.0001) %MON trcstat_ptracer49_sd         =   4.9468764452924880E-03
(PID.TID 0000.0001) %MON trcstat_ptracer49_del2       =   7.2595406625119134E-05
(PID.TID 0000.0001) %MON trcstat_ptracer50_max        =   6.3705107635627012E-01
(PID.TID 0000.0001) %MON trcstat_ptracer50_min        =   1.3236330300852082E-09
(PID.TID 0000.0001) %MON trcstat_ptracer50_mean       =   4.7577371555423986E-04
(PID.TID 0000.0001) %MON trcstat_ptracer50_sd         =   4.8205021427574161E-03
(PID.TID 0000.0001) %MON trcstat_ptracer50_del2       =   7.1679437634300871E-05
(PID.TID 0000.0001) %MON trcstat_ptracer51_max        =   6.3097482801179750E-01
(PID.TID 0000.0001) %MON trcstat_ptracer51_min        =   1.3249538188136409E-09
(PID.TID 0000.0001) %MON trcstat_ptracer51_mean       =   4.8987388036654891E-04
(PID.TID 0000.0001) %MON trcstat_ptracer51_sd         =   4.8379101520808826E-03
(PID.TID 0000.0001) %MON trcstat_ptracer51_del2       =   7.0858798196091706E-05
(PID.TID 0000.0001) %MON trcstat_ptracer52_max        =   6.3097482801179750E-01
(PID.TID 0000.0001) %MON trcstat_ptracer52_min        =   1.3249538188136409E-09
(PID.TID 0000.0001) %MON trcstat_ptracer52_mean       =   5.1454563086614474E-04
(PID.TID 0000.0001) %MON trcstat_ptracer52_sd         =   5.0993811637954686E-03
(PID.TID 0000.0001) %MON trcstat_ptracer52_del2       =   7.1793317444854008E-05
(PID.TID 0000.0001) %MON trcstat_ptracer53_max        =   6.3705107635627012E-01
(PID.TID 0000.0001) %MON trcstat_ptracer53_min        =   1.3236330300852082E-09
(PID.TID 0000.0001) %MON trcstat_ptracer53_mean       =   5.0606307938780249E-04
(PID.TID 0000.0001) %MON trcstat_ptracer53_sd         =   5.0518695056309898E-03
(PID.TID 0000.0001) %MON trcstat_ptracer53_del2       =   7.2199724523710454E-05
(PID.TID 0000.0001) %MON trcstat_ptracer54_max        =   6.3705107635627012E-01
(PID.TID 0000.0001) %MON trcstat_ptracer54_min        =   1.3236330300852082E-09
(PID.TID 0000.0001) %MON trcstat_ptracer54_mean       =   4.7446692012494509E-04
(PID.TID 0000.0001) %MON trcstat_ptracer54_sd         =   4.8131766990882809E-03
(PID.TID 0000.0001) %MON trcstat_ptracer54_del2       =   7.1712895015369252E-05
(PID.TID 0000.0001) %MON trcstat_ptracer55_max        =   6.4141719909676354E-01
(PID.TID 0000.0001) %MON trcstat_ptracer55_min        =   1.3249538189202612E-09
[...]
(PID.TID 0000.0001) %MON trcstat_ptracer48_del2       =   5.5080783742680226E-05
(PID.TID 0000.0001) %MON trcstat_ptracer49_max        =   4.9906016938122211E-01
(PID.TID 0000.0001) %MON trcstat_ptracer49_min        =   1.1387333244440431E-09
(PID.TID 0000.0001) %MON trcstat_ptracer49_mean       =   4.9280164989453203E-04
(PID.TID 0000.0001) %MON trcstat_ptracer49_sd         =   4.8376761820377321E-03
(PID.TID 0000.0001) %MON trcstat_ptracer49_del2       =   5.5251890929965270E-05
(PID.TID 0000.0001) %MON trcstat_ptracer50_max        =   4.3409664576762791E-01
(PID.TID 0000.0001) %MON trcstat_ptracer50_min        =   1.1387333244440431E-09
(PID.TID 0000.0001) %MON trcstat_ptracer50_mean       =   4.3678243261286148E-04
(PID.TID 0000.0001) %MON trcstat_ptracer50_sd         =   4.2273314861587946E-03
(PID.TID 0000.0001) %MON trcstat_ptracer50_del2       =   5.2721755269835177E-05
(PID.TID 0000.0001) %MON trcstat_ptracer51_max        =   4.1529773054123242E-01
(PID.TID 0000.0001) %MON trcstat_ptracer51_min        =   1.1432844712071132E-09
(PID.TID 0000.0001) %MON trcstat_ptracer51_mean       =   5.0115263385196293E-04
(PID.TID 0000.0001) %MON trcstat_ptracer51_sd         =   4.4408536923807749E-03
(PID.TID 0000.0001) %MON trcstat_ptracer51_del2       =   4.9181937203335292E-05
(PID.TID 0000.0001) %MON trcstat_ptracer52_max        =   4.3047777789905400E-01
(PID.TID 0000.0001) %MON trcstat_ptracer52_min        =   1.1432844712071132E-09
(PID.TID 0000.0001) %MON trcstat_ptracer52_mean       =   6.8905567834418231E-04
(PID.TID 0000.0001) %MON trcstat_ptracer52_sd         =   7.4877519482270810E-03
(PID.TID 0000.0001) %MON trcstat_ptracer52_del2       =   6.5356210208311833E-05
(PID.TID 0000.0001) %MON trcstat_ptracer53_max        =   4.3409664576765356E-01
(PID.TID 0000.0001) %MON trcstat_ptracer53_min        =   1.1387333244440431E-09
(PID.TID 0000.0001) %MON trcstat_ptracer53_mean       =   6.2815546519463827E-04
(PID.TID 0000.0001) %MON trcstat_ptracer53_sd         =   6.7920450344614832E-03
(PID.TID 0000.0001) %MON trcstat_ptracer53_del2       =   5.9648154605123234E-05
(PID.TID 0000.0001) %MON trcstat_ptracer54_max        =   4.3409664576763102E-01
(PID.TID 0000.0001) %MON trcstat_ptracer54_min        =   1.1387333244440431E-09
(PID.TID 0000.0001) %MON trcstat_ptracer54_mean       =   4.2871959363613074E-04
(PID.TID 0000.0001) %MON trcstat_ptracer54_sd         =   4.1243745354211858E-03
(PID.TID 0000.0001) %MON trcstat_ptracer54_del2       =   5.2487159518564645E-05
(PID.TID 0000.0001) %MON trcstat_ptracer55_max        =   4.5078220378869743E-01
(PID.TID 0000.0001) %MON trcstat_ptracer55_min        =   1.1432844715597087E-09
(PID.TID 0000.0001) %MON trcstat_ptracer55_mean       =   8.1044456414961722E-04
(PID.TID 0000.0001) %MON trcstat_ptracer55_sd         =   9.1368005234215531E-03
(PID.TID 0000.0001) %MON trcstat_ptracer55_del2       =   6.2543354968762663E-05
(PID.TID 0000.0001) %MON trcstat_ptracer56_max        =   4.5078220378871436E-01
(PID.TID 0000.0001) %MON trcstat_ptracer56_min        =   1.1432844715597087E-09
(PID.TID 0000.0001) %MON trcstat_ptracer56_mean       =   6.0189338474303511E-04
(PID.TID 0000.0001) %MON trcstat_ptracer56_sd         =   6.6075764618681370E-03
(PID.TID 0000.0001) %MON trcstat_ptracer56_del2       =   6.3458854697048922E-05
(PID.TID 0000.0001) %MON trcstat_ptracer57_max        =   4.1529773054124230E-01
(PID.TID 0000.0001) %MON trcstat_ptracer57_min        =   1.1432844712071132E-09
(PID.TID 0000.0001) %MON trcstat_ptracer57_mean       =   5.2140981183196496E-04
(PID.TID 0000.0001) %MON trcstat_ptracer57_sd         =   5.1160483390656503E-03
(PID.TID 0000.0001) %MON trcstat_ptracer57_del2       =   5.1841134179518977E-05
(PID.TID 0000.0001) %MON trcstat_ptracer58_max        =   4.1557138190957787E-01
(PID.TID 0000.0001) %MON trcstat_ptracer58_min        =   1.1432844712071132E-09
(PID.TID 0000.0001) %MON trcstat_ptracer58_mean       =   4.8883257049028893E-04
(PID.TID 0000.0001) %MON trcstat_ptracer58_sd         =   4.8539622514055750E-03
(PID.TID 0000.0001) %MON trcstat_ptracer58_del2       =   5.6274156542968397E-05
(PID.TID 0000.0001) %MON trcstat_ptracer59_max        =   4.6366683073510262E-01
(PID.TID 0000.0001) %MON trcstat_ptracer59_min        =   1.1432844712071132E-09
(PID.TID 0000.0001) %MON trcstat_ptracer59_mean       =   8.3952745379181637E-04
(PID.TID 0000.0001) %MON trcstat_ptracer59_sd         =   9.4440722039435317E-03
(PID.TID 0000.0001) %MON trcstat_ptracer59_del2       =   6.1782124264549658E-05
(PID.TID 0000.0001) %MON trcstat_ptracer60_max        =   5.2910789635846522E-01
(PID.TID 0000.0001) %MON trcstat_ptracer60_min        =   1.1432844715597087E-09
(PID.TID 0000.0001) %MON trcstat_ptracer60_mean       =   8.2458311385752046E-04
(PID.TID 0000.0001) %MON trcstat_ptracer60_sd         =   9.7518829060539852E-03
(PID.TID 0000.0001) %MON trcstat_ptracer60_del2       =   6.6721146463697805E-05
(PID.TID 0000.0001) %MON trcstat_ptracer61_max        =   4.5078220378870043E-01
(PID.TID 0000.0001) %MON trcstat_ptracer61_min        =   1.1432844715597087E-09
(PID.TID 0000.0001) %MON trcstat_ptracer61_mean       =   5.4631494927276673E-04
(PID.TID 0000.0001) %MON trcstat_ptracer61_sd         =   5.7507068840758936E-03
(PID.TID 0000.0001) %MON trcstat_ptracer61_del2       =   5.8380219966106094E-05
(PID.TID 0000.0001) %MON trcstat_ptracer62_max        =   4.5078220378869777E-01
(PID.TID 0000.0001) %MON trcstat_ptracer62_min        =   1.1432844715597087E-09
(PID.TID 0000.0001) %MON trcstat_ptracer62_mean       =   5.2355882787153004E-04
(PID.TID 0000.0001) %MON trcstat_ptracer62_sd         =   5.4215651846922326E-03
(PID.TID 0000.0001) %MON trcstat_ptracer62_del2       =   5.7593639032176102E-05
(PID.TID 0000.0001) %MON trcstat_ptracer63_max        =   4.1530314429728998E-01
(PID.TID 0000.0001) %MON trcstat_ptracer63_min        =   1.1432844712071132E-09
(PID.TID 0000.0001) %MON trcstat_ptracer63_mean       =   4.1529597559869389E-04
(PID.TID 0000.0001) %MON trcstat_ptracer63_sd         =   3.8268549576048342E-03
(PID.TID 0000.0001) %MON trcstat_ptracer63_del2       =   4.8839671954609303E-05
(PID.TID 0000.0001) %MON trcstat_ptracer64_max        =   4.3409664576762580E-01
(PID.TID 0000.0001) %MON trcstat_ptracer64_min        =   1.1387333244440431E-09
(PID.TID 0000.0001) %MON trcstat_ptracer64_mean       =   4.7264922875423957E-04
(PID.TID 0000.0001) %MON trcstat_ptracer64_sd         =   4.5893799621441684E-03
(PID.TID 0000.0001) %MON trcstat_ptracer64_del2       =   5.3420076614997522E-05
(PID.TID 0000.0001) %MON trcstat_ptracer65_max        =   4.5078220378870365E-01
(PID.TID 0000.0001) %MON trcstat_ptracer65_min        =   1.1432844715597087E-09
(PID.TID 0000.0001) %MON trcstat_ptracer65_mean       =   6.0764546890413121E-04
(PID.TID 0000.0001) %MON trcstat_ptracer65_sd         =   6.4299533458347944E-03
(PID.TID 0000.0001) %MON trcstat_ptracer65_del2       =   6.1989794648657754E-05
(PID.TID 0000.0001) %MON trcstat_ptracer66_max        =   4.5078220378867506E-01
(PID.TID 0000.0001) %MON trcstat_ptracer66_min        =   1.1432844715597087E-09
(PID.TID 0000.0001) %MON trcstat_ptracer66_mean       =   4.4472528340320751E-04
(PID.TID 0000.0001) %MON trcstat_ptracer66_sd         =   4.1990797883126214E-03
(PID.TID 0000.0001) %MON trcstat_ptracer66_del2       =   5.2286297359212802E-05
(PID.TID 0000.0001) %MON trcstat_ptracer67_max        =   4.5078220378869099E-01
(PID.TID 0000.0001) %MON trcstat_ptracer67_min        =   1.1432844715597087E-09
(PID.TID 0000.0001) %MON trcstat_ptracer67_mean       =   5.2111550665999288E-04
(PID.TID 0000.0001) %MON trcstat_ptracer67_sd         =   5.3125078639921037E-03
(PID.TID 0000.0001) %MON trcstat_ptracer67_del2       =   5.6120015451503688E-05
(PID.TID 0000.0001) %MON trcstat_ptracer68_max        =   4.3409664576756590E-01
(PID.TID 0000.0001) %MON trcstat_ptracer68_min        =   1.1387333244440431E-09
(PID.TID 0000.0001) %MON trcstat_ptracer68_mean       =   4.0796978156867290E-04
(PID.TID 0000.0001) %MON trcstat_ptracer68_sd         =   3.8889923053993069E-03
(PID.TID 0000.0001) %MON trcstat_ptracer68_del2       =   5.0839305623341493E-05
(PID.TID 0000.0001) %MON trcstat_ptracer69_max        =   4.5078220378870948E-01
(PID.TID 0000.0001) %MON trcstat_ptracer69_min        =   1.1432844715597087E-09
(PID.TID 0000.0001) %MON trcstat_ptracer69_mean       =   5.9935498941185753E-04
(PID.TID 0000.0001) %MON trcstat_ptracer69_sd         =   6.5188781277139085E-03
(PID.TID 0000.0001) %MON trcstat_ptracer69_del2       =   6.2574723317939711E-05
(PID.TID 0000.0001) %MON trcstat_ptracer70_max        =   4.1548824934460599E-01
(PID.TID 0000.0001) %MON trcstat_ptracer70_min        =   1.1432844712071132E-09
(PID.TID 0000.0001) %MON trcstat_ptracer70_mean       =   4.5824533503233833E-04
(PID.TID 0000.0001) %MON trcstat_ptracer70_sd         =   4.3675004633930981E-03
(PID.TID 0000.0001) %MON trcstat_ptracer70_del2       =   5.2209541352677707E-05
(PID.TID 0000.0001) %MON trcstat_ptracer71_max        =   4.6142946253100281E-01
(PID.TID 0000.0001) %MON trcstat_ptracer71_min        =   1.1387333244440431E-09
(PID.TID 0000.0001) %MON trcstat_ptracer71_mean       =   5.6830115554855755E-04
(PID.TID 0000.0001) %MON trcstat_ptracer71_sd         =   6.3875405042339486E-03
(PID.TID 0000.0001) %MON trcstat_ptracer71_del2       =   6.3498364836174313E-05
(PID.TID 0000.0001) %MON trcstat_ptracer72_max        =   4.3409664576762658E-01
(PID.TID 0000.0001) %MON trcstat_ptracer72_min        =   1.1387333244440431E-09
(PID.TID 0000.0001) %MON trcstat_ptracer72_mean       =   5.2325865091787838E-04
(PID.TID 0000.0001) %MON trcstat_ptracer72_sd         =   5.1298606987032992E-03
(PID.TID 0000.0001) %MON trcstat_ptracer72_del2       =   5.5019534239197561E-05
(PID.TID 0000.0001) %MON trcstat_ptracer73_max        =   4.3409664576762641E-01
(PID.TID 0000.0001) %MON trcstat_ptracer73_min        =   1.1387333244440431E-09
(PID.TID 0000.0001) %MON trcstat_ptracer73_mean       =   6.5286654190540889E-04
(PID.TID 0000.0001) %MON trcstat_ptracer73_sd         =   7.1569246710162307E-03
(PID.TID 0000.0001) %MON trcstat_ptracer73_del2       =   5.8354507714703698E-05
(PID.TID 0000.0001) %MON trcstat_ptracer74_max        =   4.3409664576762541E-01
(PID.TID 0000.0001) %MON trcstat_ptracer74_min        =   1.1387333244440431E-09
(PID.TID 0000.0001) %MON trcstat_ptracer74_mean       =   4.5130495463750297E-04
(PID.TID 0000.0001) %MON trcstat_ptracer74_sd         =   4.2084839959483627E-03
(PID.TID 0000.0001) %MON trcstat_ptracer74_del2       =   5.1341606202100204E-05
(PID.TID 0000.0001) %MON trcstat_ptracer75_max        =   4.1529773054123803E-01
(PID.TID 0000.0001) %MON trcstat_ptracer75_min        =   1.1432844712071132E-09
(PID.TID 0000.0001) %MON trcstat_ptracer75_mean       =   5.7190988367166894E-04
(PID.TID 0000.0001) %MON trcstat_ptracer75_sd         =   5.2585214933957387E-03
(PID.TID 0000.0001) %MON trcstat_ptracer75_del2       =   5.0882199975627710E-05
(PID.TID 0000.0001) %MON trcstat_ptracer76_max        =   4.5107376948828332E-01
(PID.TID 0000.0001) %MON trcstat_ptracer76_min        =   1.1432844715597087E-09
(PID.TID 0000.0001) %MON trcstat_ptracer76_mean       =   4.9077967891463143E-04
(PID.TID 0000.0001) %MON trcstat_ptracer76_sd         =   4.8831536472663511E-03
(PID.TID 0000.0001) %MON trcstat_ptracer76_del2       =   5.8508789904967800E-05
(PID.TID 0000.0001) %MON trcstat_ptracer77_max        =   4.3409664576762769E-01
(PID.TID 0000.0001) %MON trcstat_ptracer77_min        =   1.1387333244440431E-09
(PID.TID 0000.0001) %MON trcstat_ptracer77_mean       =   4.4180783074192784E-04
(PID.TID 0000.0001) %MON trcstat_ptracer77_sd         =   4.2701647777335953E-03
(PID.TID 0000.0001) %MON trcstat_ptracer77_del2       =   5.2940280021833166E-05
(PID.TID 0000.0001) %MON trcstat_ptracer78_max        =   4.1529773054125751E-01
(PID.TID 0000.0001) %MON trcstat_ptracer78_min        =   1.1432844712071132E-09
(PID.TID 0000.0001) %MON trcstat_ptracer78_mean       =   5.6775437911783517E-04
(PID.TID 0000.0001) %MON trcstat_ptracer78_sd         =   6.0459997864099699E-03
(PID.TID 0000.0001) %MON trcstat_ptracer78_del2       =   5.7534627520916918E-05
(PID.TID 0000.0001) %MON trcstat_ptracer79_max        =   5.1404457502200418E-01
(PID.TID 0000.0001) %MON trcstat_ptracer79_min        =   1.1432844715597087E-09
(PID.TID 0000.0001) %MON trcstat_ptracer79_mean       =   8.3781015118288764E-04
(PID.TID 0000.0001) %MON trcstat_ptracer79_sd         =   9.8722515742618606E-03
(PID.TID 0000.0001) %MON trcstat_ptracer79_del2       =   6.6091312131749295E-05
(PID.TID 0000.0001) %MON trcstat_ptracer80_max        =   4.5078220378869699E-01
(PID.TID 0000.0001) %MON trcstat_ptracer80_min        =   1.1432844715597087E-09
(PID.TID 0000.0001) %MON trcstat_ptracer80_mean       =   6.7319158945745449E-04
(PID.TID 0000.0001) %MON trcstat_ptracer80_sd         =   7.1192647794886561E-03
(PID.TID 0000.0001) %MON trcstat_ptracer80_del2       =   6.2973177329114034E-05
(PID.TID 0000.0001) %MON trcstat_ptracer81_max        =   4.3417239530417251E-01
(PID.TID 0000.0001) %MON trcstat_ptracer81_min        =   1.1387333244440431E-09
(PID.TID 0000.0001) %MON trcstat_ptracer81_mean       =   4.2435857652561003E-04
(PID.TID 0000.0001) %MON trcstat_ptracer81_sd         =   4.0085298116159726E-03
(PID.TID 0000.0001) %MON trcstat_ptracer81_del2       =   5.1726922759405621E-05
(PID.TID 0000.0001) %MON trcstat_ptracer82_max        =   4.3409664576762719E-01
(PID.TID 0000.0001) %MON trcstat_ptracer82_min        =   1.1387333244440431E-09
(PID.TID 0000.0001) %MON trcstat_ptracer82_mean       =   5.0718075489005138E-04
(PID.TID 0000.0001) %MON trcstat_ptracer82_sd         =   4.9775944302268621E-03
(PID.TID 0000.0001) %MON trcstat_ptracer82_del2       =   5.5370459707190846E-05
(PID.TID 0000.0001) %MON trcstat_ptracer83_max        =   4.3409664576762458E-01
(PID.TID 0000.0001) %MON trcstat_ptracer83_min        =   1.1387333244440431E-09
(PID.TID 0000.0001) %MON trcstat_ptracer83_mean       =   3.9950874492399691E-04
(PID.TID 0000.0001) %MON trcstat_ptracer83_sd         =   3.7704136610178388E-03
(PID.TID 0000.0001) %MON trcstat_ptracer83_del2       =   5.0220348820512504E-05
(PID.TID 0000.0001) %MON trcstat_ptracer84_max        =   4.5078220378869244E-01
(PID.TID 0000.0001) %MON trcstat_ptracer84_min        =   1.1432844715597087E-09
(PID.TID 0000.0001) %MON trcstat_ptracer84_mean       =   5.4668523216548756E-04
(PID.TID 0000.0001) %MON trcstat_ptracer84_sd         =   5.6057606435243688E-03
(PID.TID 0000.0001) %MON trcstat_ptracer84_del2       =   5.6665183631506926E-05
(PID.TID 0000.0001) %MON trcstat_ptracer85_max        =   4.3409664576762580E-01
(PID.TID 0000.0001) %MON trcstat_ptracer85_min        =   1.1387333244440431E-09
(PID.TID 0000.0001) %MON trcstat_ptracer85_mean       =   4.1323907823423537E-04
(PID.TID 0000.0001) %MON trcstat_ptracer85_sd         =   3.9001643250793977E-03
(PID.TID 0000.0001) %MON trcstat_ptracer85_del2       =   5.0769191344888110E-05
(PID.TID 0000.0001) %MON trcstat_ptracer86_max        =   4.3414755954649026E-01
(PID.TID 0000.0001) %MON trcstat_ptracer86_min        =   1.1387333244440431E-09
(PID.TID 0000.0001) %MON trcstat_ptracer86_mean       =   3.9552340535616102E-04
(PID.TID 0000.0001) %MON trcstat_ptracer86_sd         =   3.7839933709037273E-03
(PID.TID 0000.0001) %MON trcstat_ptracer86_del2       =   5.0357188623662878E-05
(PID.TID 0000.0001) %MON trcstat_ptracer87_max        =   4.3409664576762508E-01
(PID.TID 0000.0001) %MON trcstat_ptracer87_min        =   1.1387333244440431E-09
(PID.TID 0000.0001) %MON trcstat_ptracer87_mean       =   4.3093005708790265E-04
(PID.TID 0000.0001) %MON trcstat_ptracer87_sd         =   4.0096235296917058E-03
(PID.TID 0000.0001) %MON trcstat_ptracer87_del2       =   5.0787437159782454E-05
(PID.TID 0000.0001) %MON trcstat_ptracer88_max        =   4.3409664576762619E-01
(PID.TID 0000.0001) %MON trcstat_ptracer88_min        =   1.1387333244440431E-09
(PID.TID 0000.0001) %MON trcstat_ptracer88_mean       =   7.3868622375690689E-04
(PID.TID 0000.0001) %MON trcstat_ptracer88_sd         =   8.0553321896668344E-03
(PID.TID 0000.0001) %MON trcstat_ptracer88_del2       =   5.9699711856353431E-05
(PID.TID 0000.0001) %MON trcstat_ptracer89_max        =   5.1009711136740943E-01
(PID.TID 0000.0001) %MON trcstat_ptracer89_min        =   1.1432844712071132E-09
(PID.TID 0000.0001) %MON trcstat_ptracer89_mean       =   6.5820370611839498E-04
(PID.TID 0000.0001) %MON trcstat_ptracer89_sd         =   7.2819416943401809E-03
(PID.TID 0000.0001) %MON trcstat_ptracer89_del2       =   6.6991832407606531E-05
(PID.TID 0000.0001) %MON trcstat_ptracer90_max        =   4.1529773054124669E-01
(PID.TID 0000.0001) %MON trcstat_ptracer90_min        =   1.1432844712071132E-09
(PID.TID 0000.0001) %MON trcstat_ptracer90_mean       =   5.3592430348828595E-04
(PID.TID 0000.0001) %MON trcstat_ptracer90_sd         =   5.3618620094218975E-03
(PID.TID 0000.0001) %MON trcstat_ptracer90_del2       =   5.3518579894559094E-05
(PID.TID 0000.0001) %MON trcstat_ptracer91_max        =   4.5098477475579807E-01
(PID.TID 0000.0001) %MON trcstat_ptracer91_min        =   1.1432844715597087E-09
(PID.TID 0000.0001) %MON trcstat_ptracer91_mean       =   4.2066829093253676E-04
(PID.TID 0000.0001) %MON trcstat_ptracer91_sd         =   4.0114510999285907E-03
(PID.TID 0000.0001) %MON trcstat_ptracer91_del2       =   5.3163586189287573E-05
(PID.TID 0000.0001) %MON trcstat_ptracer92_max        =   4.3409664576762419E-01
(PID.TID 0000.0001) %MON trcstat_ptracer92_min        =   1.1387333244440431E-09
(PID.TID 0000.0001) %MON trcstat_ptracer92_mean       =   5.1599191763290156E-04
(PID.TID 0000.0001) %MON trcstat_ptracer92_sd         =   4.7450228866317765E-03
(PID.TID 0000.0001) %MON trcstat_ptracer92_del2       =   5.0820431077523508E-05
(PID.TID 0000.0001) %MON trcstat_ptracer93_max        =   4.6427712033826879E-01
(PID.TID 0000.0001) %MON trcstat_ptracer93_min        =   1.1387333244440431E-09
(PID.TID 0000.0001) %MON trcstat_ptracer93_mean       =   4.8935546568670623E-04
(PID.TID 0000.0001) %MON trcstat_ptracer93_sd         =   5.0101026998292603E-03
(PID.TID 0000.0001) %MON trcstat_ptracer93_del2       =   5.9425701267473610E-05
(PID.TID 0000.0001) %MON trcstat_ptracer94_max        =   4.3409664576762630E-01
(PID.TID 0000.0001) %MON trcstat_ptracer94_min        =   1.1387333244440431E-09
(PID.TID 0000.0001) %MON trcstat_ptracer94_mean       =   4.9047569420382299E-04
(PID.TID 0000.0001) %MON trcstat_ptracer94_sd         =   4.7911363674941953E-03
(PID.TID 0000.0001) %MON trcstat_ptracer94_del2       =   5.4288553171807005E-05
(PID.TID 0000.0001) %MON trcstat_ptracer95_max        =   4.5041037220275237E-01
(PID.TID 0000.0001) %MON trcstat_ptracer95_min        =   1.1387333244440431E-09
(PID.TID 0000.0001) %MON trcstat_ptracer95_mean       =   5.5290587849635207E-04
(PID.TID 0000.0001) %MON trcstat_ptracer95_sd         =   6.0399176123898486E-03
(PID.TID 0000.0001) %MON trcstat_ptracer95_del2       =   6.2884634665932279E-05
(PID.TID 0000.0001) %MON trcstat_ptracer96_max        =   8.4950460937440404E+00
(PID.TID 0000.0001) %MON trcstat_ptracer96_min        =   1.2700462075524847E-08
(PID.TID 0000.0001) %MON trcstat_ptracer96_mean       =   4.7659514626391519E-03
(PID.TID 0000.0001) %MON trcstat_ptracer96_sd         =   5.3056684004337898E-02
(PID.TID 0000.0001) %MON trcstat_ptracer96_del2       =   8.8289948257089766E-04
(PID.TID 0000.0001) %MON trcstat_ptracer97_max        =   8.7910578348332340E+00
(PID.TID 0000.0001) %MON trcstat_ptracer97_min        =   1.2700462074221569E-08
(PID.TID 0000.0001) %MON trcstat_ptracer97_mean       =   4.7875790761983880E-03
(PID.TID 0000.0001) %MON trcstat_ptracer97_sd         =   5.3777065450882677E-02
(PID.TID 0000.0001) %MON trcstat_ptracer97_del2       =   9.0580933870934338E-04
