(PID.TID 0000.0001) 
(PID.TID 0000.0001) // ======================================================
(PID.TID 0000.0001) //                      MITgcm UV
(PID.TID 0000.0001) //                      =========
(PID.TID 0000.0001) // ======================================================
(PID.TID 0000.0001) // execution environment starting up...
(PID.TID 0000.0001) 
(PID.TID 0000.0001) // Build user:        jahn
(PID.TID 0000.0001) // Build host:        node204
(PID.TID 0000.0001) // Build date:        Fri May  2 12:40:06 EDT 2014
(PID.TID 0000.0001) 
(PID.TID 0000.0001) // =======================================================
(PID.TID 0000.0001) // Execution Environment parameter file "eedata"
(PID.TID 0000.0001) // =======================================================
(PID.TID 0000.0001) ># Example "eedata" file
(PID.TID 0000.0001) ># Lines beginning "#" are comments
(PID.TID 0000.0001) ># nTx - No. threads per process in X
(PID.TID 0000.0001) ># nTy - No. threads per process in Y
(PID.TID 0000.0001) > &EEPARMS
(PID.TID 0000.0001) > nTx=1,nTy=1
(PID.TID 0000.0001) > /
(PID.TID 0000.0001) ># Note: Some systems use & as the
(PID.TID 0000.0001) ># namelist terminator. Other systems
(PID.TID 0000.0001) ># use a / character (as shown here).
(PID.TID 0000.0001) 
(PID.TID 0000.0001) // =======================================================
(PID.TID 0000.0001) // Computational Grid Specification ( see files "SIZE.h" )
(PID.TID 0000.0001) //                                  ( and "eedata"       )
(PID.TID 0000.0001) // =======================================================
(PID.TID 0000.0001)      nPx =    1 ; /* No. processes in X */
(PID.TID 0000.0001)      nPy =    1 ; /* No. processes in Y */
(PID.TID 0000.0001)      nSx =    2 ; /* No. tiles in X per process */
(PID.TID 0000.0001)      nSy =    1 ; /* No. tiles in Y per process */
(PID.TID 0000.0001)      sNx =   64 ; /* Tile size in X */
(PID.TID 0000.0001)      sNy =   64 ; /* Tile size in Y */
(PID.TID 0000.0001)      OLx =    4 ; /* Tile overlap distance in X */
(PID.TID 0000.0001)      OLy =    4 ; /* Tile overlap distance in Y */
(PID.TID 0000.0001)      nTx =    1 ; /* No. threads in X per process */
(PID.TID 0000.0001)      nTy =    1 ; /* No. threads in Y per process */
(PID.TID 0000.0001)       Nr =   15 ; /* No. levels in the vertical   */
(PID.TID 0000.0001)       Nx =  128 ; /* Total domain size in X ( = nPx*nSx*sNx ) */
(PID.TID 0000.0001)       Ny =   64 ; /* Total domain size in Y ( = nPy*nSy*sNy ) */
(PID.TID 0000.0001)   nTiles =    2 ; /* Total no. tiles per process ( = nSx*nSy ) */
(PID.TID 0000.0001)   nProcs =    1 ; /* Total no. processes ( = nPx*nPy ) */
(PID.TID 0000.0001) nThreads =    1 ; /* Total no. threads per process ( = nTx*nTy ) */
(PID.TID 0000.0001) usingMPI =    F ; /* Flag used to control whether MPI is in use */
(PID.TID 0000.0001)                   /*  note: To execute a program with MPI calls */
(PID.TID 0000.0001)                   /*  it must be launched appropriately e.g     */
(PID.TID 0000.0001)                   /*  "mpirun -np 64 ......"                    */
(PID.TID 0000.0001) useCoupler=    F ;/* Flag used to control communications with   */
(PID.TID 0000.0001)                   /*  other model components, through a coupler */
(PID.TID 0000.0001) debugMode =    F ; /* print debug msg. (sequence of S/R calls)  */
(PID.TID 0000.0001) printMapIncludesZeros=    F ; /* print zeros in Std.Output maps */
(PID.TID 0000.0001) maxLengthPrt1D=   65 /* maxLength of 1D array printed to StdOut */
(PID.TID 0000.0001) 
(PID.TID 0000.0001) // ======================================================
(PID.TID 0000.0001) // Mapping of tiles to threads
(PID.TID 0000.0001) // ======================================================
(PID.TID 0000.0001) // -o- Thread   1, tiles (   1:   2,   1:   1)
(PID.TID 0000.0001) 
(PID.TID 0000.0001) // ======================================================
(PID.TID 0000.0001) // Tile <-> Tile connectvity table
(PID.TID 0000.0001) // ======================================================
(PID.TID 0000.0001) // Tile number: 000001 (process no. = 000000)
(PID.TID 0000.0001) //        WEST: Tile = 000002, Process = 000000, Comm = put
(PID.TID 0000.0001) //                bi = 000002, bj = 000001
(PID.TID 0000.0001) //        EAST: Tile = 000002, Process = 000000, Comm = put
(PID.TID 0000.0001) //                bi = 000002, bj = 000001
(PID.TID 0000.0001) //       SOUTH: Tile = 000001, Process = 000000, Comm = put
(PID.TID 0000.0001) //                bi = 000001, bj = 000001
(PID.TID 0000.0001) //       NORTH: Tile = 000001, Process = 000000, Comm = put
(PID.TID 0000.0001) //                bi = 000001, bj = 000001
(PID.TID 0000.0001) // Tile number: 000002 (process no. = 000000)
(PID.TID 0000.0001) //        WEST: Tile = 000001, Process = 000000, Comm = put
(PID.TID 0000.0001) //                bi = 000001, bj = 000001
(PID.TID 0000.0001) //        EAST: Tile = 000001, Process = 000000, Comm = put
(PID.TID 0000.0001) //                bi = 000001, bj = 000001
(PID.TID 0000.0001) //       SOUTH: Tile = 000002, Process = 000000, Comm = put
(PID.TID 0000.0001) //                bi = 000002, bj = 000001
(PID.TID 0000.0001) //       NORTH: Tile = 000002, Process = 000000, Comm = put
(PID.TID 0000.0001) //                bi = 000002, bj = 000001
(PID.TID 0000.0001) 
(PID.TID 0000.0001)  INI_PARMS: opening model parameter file "data"
(PID.TID 0000.0001)  OPEN_COPY_DATA_FILE: opening file data
(PID.TID 0000.0001) // =======================================================
(PID.TID 0000.0001) // Parameter file "data"
(PID.TID 0000.0001) // =======================================================
(PID.TID 0000.0001) ># ====================
(PID.TID 0000.0001) ># | Model parameters |
(PID.TID 0000.0001) ># ====================
(PID.TID 0000.0001) >#
(PID.TID 0000.0001) ># Continuous equation parameters
(PID.TID 0000.0001) > &PARM01
(PID.TID 0000.0001) > tRef=15*20.,
(PID.TID 0000.0001) > sRef=15*35.,
(PID.TID 0000.0001) > viscA4=0.,
(PID.TID 0000.0001) > viscAh=5.E5,
(PID.TID 0000.0001) > diffKhT=0.E3,
(PID.TID 0000.0001) > diffKhS=0.E3,
(PID.TID 0000.0001) > viscAz=1.E-3,
(PID.TID 0000.0001) > diffKzT=5.E-5,
(PID.TID 0000.0001) > diffKzS=5.E-5,
(PID.TID 0000.0001) > beta=1.E-11,
(PID.TID 0000.0001) > f0=1.e-4,
(PID.TID 0000.0001) > tAlpha=2.E-4,
(PID.TID 0000.0001) > sBeta =7.4E-4,
(PID.TID 0000.0001) > gravity=9.81,
(PID.TID 0000.0001) > gBaro=9.81,
(PID.TID 0000.0001) > rhonil=1035.,
(PID.TID 0000.0001) > rigidLid=.FALSE.,
(PID.TID 0000.0001) > implicitFreeSurface=.TRUE.,
(PID.TID 0000.0001) > eosType='POLY3',
(PID.TID 0000.0001) > implicitDiffusion=.TRUE.,
(PID.TID 0000.0001) > implicitViscosity=.TRUE.,
(PID.TID 0000.0001) > ivdc_kappa=100.,
(PID.TID 0000.0001) > tempAdvScheme       = 2
(PID.TID 0000.0001) > saltAdvScheme       = 2
(PID.TID 0000.0001) > tempStepping        = .TRUE.
(PID.TID 0000.0001) > saltStepping        = .TRUE.
(PID.TID 0000.0001) > multiDimAdvection   = .FALSE.
(PID.TID 0000.0001) > allowFreezing=.TRUE.,
(PID.TID 0000.0001) > useCDscheme=.TRUE.,
(PID.TID 0000.0001) >#usePickupBeforeC54=.TRUE.,
(PID.TID 0000.0001) > writeBinaryPrec= 64,
(PID.TID 0000.0001) > /
(PID.TID 0000.0001) >
(PID.TID 0000.0001) ># Elliptic solver parameters
(PID.TID 0000.0001) > &PARM02
(PID.TID 0000.0001) > cg2dMaxIters=1000,
(PID.TID 0000.0001) > cg2dTargetResidual=1.E-13,
(PID.TID 0000.0001) > /
(PID.TID 0000.0001) >
(PID.TID 0000.0001) ># Time stepping parameters
(PID.TID 0000.0001) > &PARM03
(PID.TID 0000.0001) > nIter0=5644800,
(PID.TID 0000.0001) > nTimeSteps = 4,
(PID.TID 0000.0001) >#nTimeSteps = 7200,
(PID.TID 0000.0001) > deltaTmom = 900.0,
(PID.TID 0000.0001) > tauCD =     321428.,
(PID.TID 0000.0001) > deltaTtracer= 43200.0,
(PID.TID 0000.0001) > deltaTClock = 43200.0,
(PID.TID 0000.0001) > abEps = 0.1,
(PID.TID 0000.0001) > pickupStrictlyMatch=.FALSE.,
(PID.TID 0000.0001) > pChkptFreq=311040000.,
(PID.TID 0000.0001) > chkptFreq= 311040000.,
(PID.TID 0000.0001) > dumpFreq=  43200.,
(PID.TID 0000.0001) > dumpinitandlast=.TRUE.,
(PID.TID 0000.0001) > taveFreq=  2592000.,
(PID.TID 0000.0001) >#taveFreq=  31104000.,
(PID.TID 0000.0001) >#monitorFreq= 31104000.,
(PID.TID 0000.0001) > monitorFreq= 43200.0,
(PID.TID 0000.0001) >#monitorFreq= 2592000.,
(PID.TID 0000.0001) > tauThetaClimRelax = 5184000.0,
(PID.TID 0000.0001) > tauSaltClimRelax =  7776000.0,
(PID.TID 0000.0001) > periodicExternalForcing=.TRUE.,
(PID.TID 0000.0001) > externForcingPeriod=2592000.,
(PID.TID 0000.0001) > externForcingCycle=31104000.,
(PID.TID 0000.0001) > /
(PID.TID 0000.0001) >
(PID.TID 0000.0001) ># Gridding parameters
(PID.TID 0000.0001) > &PARM04
(PID.TID 0000.0001) > usingCartesianGrid=.FALSE.,
(PID.TID 0000.0001) > usingSphericalPolarGrid=.TRUE.,
(PID.TID 0000.0001) > delZ= 50., 70., 100., 140., 190.,
(PID.TID 0000.0001) >       240., 290., 340., 390., 440.,
(PID.TID 0000.0001) >       490., 540., 590., 640., 690.,
(PID.TID 0000.0001) > ygOrigin=-90.,
(PID.TID 0000.0001) > delX=128*2.8125,
(PID.TID 0000.0001) > delY=64*2.8125,
(PID.TID 0000.0001) > /
(PID.TID 0000.0001) >
(PID.TID 0000.0001) ># Input datasets
(PID.TID 0000.0001) > &PARM05
(PID.TID 0000.0001) > bathyFile=      '../../monod_global_128x64x15/input/input_ocmip/depth_g77.bin',
(PID.TID 0000.0001) > hydrogThetaFile='../../monod_global_128x64x15/input/input_ocmip/lev_clim_temp.bin',
(PID.TID 0000.0001) > hydrogSaltFile= '../../monod_global_128x64x15/input/input_ocmip/lev_clim_salt.bin',
(PID.TID 0000.0001) > zonalWindFile=  '../../monod_global_128x64x15/input/input_ocmip/tren_taux.bin',
(PID.TID 0000.0001) > meridWindFile=  '../../monod_global_128x64x15/input/input_ocmip/tren_tauy.bin',
(PID.TID 0000.0001) > thetaClimFile=  '../../monod_global_128x64x15/input/input_ocmip/lev_monthly_temp.bin',
(PID.TID 0000.0001) > saltClimFile=   '../../monod_global_128x64x15/input/input_ocmip/lev_monthly_salt.bin',
(PID.TID 0000.0001) > surfQFile=      '../../monod_global_128x64x15/input/input_ocmip/shi_qnet.bin',
(PID.TID 0000.0001) > EmPmRFile=      '../../monod_global_128x64x15/input/input_ocmip/shi_empmr_year.bin',
(PID.TID 0000.0001) > the_run_name=   'Darwin12',
(PID.TID 0000.0001) > /
(PID.TID 0000.0001) 
(PID.TID 0000.0001)  INI_PARMS ; starts to read PARM01
(PID.TID 0000.0001)  INI_PARMS ; read PARM01 : OK
(PID.TID 0000.0001)  INI_PARMS ; starts to read PARM02
(PID.TID 0000.0001)  INI_PARMS ; read PARM02 : OK
(PID.TID 0000.0001)  INI_PARMS ; starts to read PARM03
(PID.TID 0000.0001)  INI_PARMS ; read PARM03 : OK
(PID.TID 0000.0001)  INI_PARMS ; starts to read PARM04
(PID.TID 0000.0001)  INI_PARMS ; read PARM04 : OK
(PID.TID 0000.0001)  INI_PARMS ; starts to read PARM05
(PID.TID 0000.0001)  INI_PARMS ; read PARM05 : OK
(PID.TID 0000.0001)  INI_PARMS: finished reading file "data"
(PID.TID 0000.0001)  PACKAGES_BOOT: opening data.pkg
(PID.TID 0000.0001)  OPEN_COPY_DATA_FILE: opening file data.pkg
(PID.TID 0000.0001) // =======================================================
(PID.TID 0000.0001) // Parameter file "data.pkg"
(PID.TID 0000.0001) // =======================================================
(PID.TID 0000.0001) ># Packages
(PID.TID 0000.0001) > &PACKAGES
(PID.TID 0000.0001) > useGMRedi=.TRUE.,
(PID.TID 0000.0001) > useGCHEM=.TRUE.,
(PID.TID 0000.0001) > usePTRACERS=.TRUE.,
(PID.TID 0000.0001) > useEXF=.TRUE.,
(PID.TID 0000.0001) > useMNC=.TRUE.,
(PID.TID 0000.0001) > useDIAGNOSTICS=.TRUE.,
(PID.TID 0000.0001) > /
(PID.TID 0000.0001) 
(PID.TID 0000.0001)  PACKAGES_BOOT: finished reading data.pkg
(PID.TID 0000.0001)  MNC_READPARMS: opening file 'data.mnc'
(PID.TID 0000.0001)  OPEN_COPY_DATA_FILE: opening file data.mnc
(PID.TID 0000.0001) // =======================================================
(PID.TID 0000.0001) // Parameter file "data.mnc"
(PID.TID 0000.0001) // =======================================================
(PID.TID 0000.0001) ># Example "data.mnc" file
(PID.TID 0000.0001) ># Lines beginning "#" are comments
(PID.TID 0000.0001) > &MNC_01
(PID.TID 0000.0001) ># mnc_echo_gvtypes=.FALSE.,
(PID.TID 0000.0001) ># mnc_use_indir=.FALSE.,
(PID.TID 0000.0001) ># mnc_use_outdir=.TRUE.,
(PID.TID 0000.0001) > mnc_outdir_str='ecco_darwin_',
(PID.TID 0000.0001) > mnc_outdir_date=.TRUE.,
(PID.TID 0000.0001) > monitor_mnc=.FALSE.,
(PID.TID 0000.0001) > snapshot_mnc=.TRUE.,
(PID.TID 0000.0001) > timeave_mnc=.TRUE.,
(PID.TID 0000.0001) > pickup_read_mnc=.FALSE.,
(PID.TID 0000.0001) > pickup_write_mnc=.FALSE.,
(PID.TID 0000.0001) ># mnc_filefreq = 31104000.,
(PID.TID 0000.0001) ># mnc_filefreq = -1.,
(PID.TID 0000.0001) > mnc_filefreq = 2592000
(PID.TID 0000.0001) > /
(PID.TID 0000.0001) ># Note: Some systems use & as the
(PID.TID 0000.0001) ># namelist terminator. Other systems
(PID.TID 0000.0001) ># use a / character.
(PID.TID 0000.0001) 
(PID.TID 0000.0001)  MNC_READPARMS: finished reading data.mnc
(PID.TID 0000.0001) CAL_READPARMS: opening data.cal
(PID.TID 0000.0001)  OPEN_COPY_DATA_FILE: opening file data.cal
(PID.TID 0000.0001) // =======================================================
(PID.TID 0000.0001) // Parameter file "data.cal"
(PID.TID 0000.0001) // =======================================================
(PID.TID 0000.0001) >#
(PID.TID 0000.0001) ># *******************
(PID.TID 0000.0001) ># Calendar Parameters
(PID.TID 0000.0001) ># *******************
(PID.TID 0000.0001) > &CAL_NML
(PID.TID 0000.0001) > TheCalendar='model',
(PID.TID 0000.0001) > startDate_1=19920101,
(PID.TID 0000.0001) > startDate_2=000000,
(PID.TID 0000.0001) > calendarDumps = .TRUE.
(PID.TID 0000.0001) > /
(PID.TID 0000.0001) 
(PID.TID 0000.0001) CAL_READPARMS: finished reading data.cal
(PID.TID 0000.0001) EXF_READPARMS: opening data.exf
(PID.TID 0000.0001)  OPEN_COPY_DATA_FILE: opening file data.exf
(PID.TID 0000.0001) // =======================================================
(PID.TID 0000.0001) // Parameter file "data.exf"
(PID.TID 0000.0001) // =======================================================
(PID.TID 0000.0001) ># *********************
(PID.TID 0000.0001) ># External Forcing Data
(PID.TID 0000.0001) ># *********************
(PID.TID 0000.0001) >#
(PID.TID 0000.0001) > &EXF_NML_01
(PID.TID 0000.0001) > exf_albedo        = 0.15,
(PID.TID 0000.0001) > exf_iprec         = 32,
(PID.TID 0000.0001) > exf_yftype        = 'RL',
(PID.TID 0000.0001) > useExfYearlyFields= .TRUE.,
(PID.TID 0000.0001) > twoDigitYear      = .TRUE.,
(PID.TID 0000.0001) > useExfCheckRange  = .FALSE.,
(PID.TID 0000.0001) > /
(PID.TID 0000.0001) >#
(PID.TID 0000.0001) > &EXF_NML_02
(PID.TID 0000.0001) > /
(PID.TID 0000.0001) >#
(PID.TID 0000.0001) > &EXF_NML_03
(PID.TID 0000.0001) > /
(PID.TID 0000.0001) >#
(PID.TID 0000.0001) > &EXF_NML_04
(PID.TID 0000.0001) > /
(PID.TID 0000.0001) >#
(PID.TID 0000.0001) > &EXF_NML_OBCS
(PID.TID 0000.0001) > /
(PID.TID 0000.0001) 
(PID.TID 0000.0001) EXF_READPARMS: reading EXF_NML_01
(PID.TID 0000.0001) EXF_READPARMS: reading EXF_NML_02
(PID.TID 0000.0001) EXF_READPARMS: reading EXF_NML_03
(PID.TID 0000.0001) EXF_READPARMS: finished reading data.exf
(PID.TID 0000.0001)  GM_READPARMS: opening data.gmredi
(PID.TID 0000.0001)  OPEN_COPY_DATA_FILE: opening file data.gmredi
(PID.TID 0000.0001) // =======================================================
(PID.TID 0000.0001) // Parameter file "data.gmredi"
(PID.TID 0000.0001) // =======================================================
(PID.TID 0000.0001) ># GM+Redi package parameters:
(PID.TID 0000.0001) >#     GM_Small_Number  :: epsilon used in computing the slope
(PID.TID 0000.0001) >#     GM_slopeSqCutoff :: slope^2 cut-off value
(PID.TID 0000.0001) >
(PID.TID 0000.0001) >#-from MOM :
(PID.TID 0000.0001) ># GM_background_K:      G & Mc.W  diffusion coefficient
(PID.TID 0000.0001) ># GM_maxSlope    :      max slope of isopycnals
(PID.TID 0000.0001) ># GM_Scrit       :      transition for scaling diffusion coefficient
(PID.TID 0000.0001) ># GM_Sd          :      half width scaling for diffusion coefficient
(PID.TID 0000.0001) ># GM_taper_scheme:      slope clipping or one of the tapering schemes
(PID.TID 0000.0001) ># GM_Kmin_horiz  :      horizontal diffusion minimum value
(PID.TID 0000.0001) >
(PID.TID 0000.0001) >#-Option parameters (needs to "define" options in GMREDI_OPTIONS.h")
(PID.TID 0000.0001) ># GM_isopycK     :      isopycnal diffusion coefficient
(PID.TID 0000.0001) >(default=GM_background_K)
(PID.TID 0000.0001) ># GM_AdvForm     :      turn on GM Advective form       (default=Skew flux
(PID.TID 0000.0001) >form)
(PID.TID 0000.0001) >
(PID.TID 0000.0001) > &GM_PARM01
(PID.TID 0000.0001) >  GM_Small_Number    = 1.D-20,
(PID.TID 0000.0001) >  GM_slopeSqCutoff   = 1.D+08,
(PID.TID 0000.0001) >  GM_AdvForm         = .FALSE.,
(PID.TID 0000.0001) >  GM_isopycK         = 1.D+3,
(PID.TID 0000.0001) >  GM_background_K    = 1.D+3,
(PID.TID 0000.0001) >  GM_maxSlope        = 1.D-2,
(PID.TID 0000.0001) >  GM_taper_scheme    = 'dm95',
(PID.TID 0000.0001) >  GM_Kmin_horiz      = 50.,
(PID.TID 0000.0001) >  GM_Scrit           = 4.D-3,
(PID.TID 0000.0001) >  GM_Sd              = 1.D-3,
(PID.TID 0000.0001) >#
(PID.TID 0000.0001) >###  GM_Visbeck_alpha   = 1.5D-2,
(PID.TID 0000.0001) >###  GM_Visbeck_alpha   = 0.D0,
(PID.TID 0000.0001) >###  GM_Visbeck_length  = 2.D+5,
(PID.TID 0000.0001) >###  GM_Visbeck_depth   = 1.D+3,
(PID.TID 0000.0001) >###  GM_Visbeck_maxval_K= 2.5D+3,
(PID.TID 0000.0001) > /
(PID.TID 0000.0001) >
(PID.TID 0000.0001) 
(PID.TID 0000.0001)  GM_READPARMS: finished reading data.gmredi
(PID.TID 0000.0001)  PTRACERS_READPARMS: opening data.ptracers
(PID.TID 0000.0001)  OPEN_COPY_DATA_FILE: opening file data.ptracers
(PID.TID 0000.0001) // =======================================================
(PID.TID 0000.0001) // Parameter file "data.ptracers"
(PID.TID 0000.0001) // =======================================================
(PID.TID 0000.0001) > &PTRACERS_PARM01
(PID.TID 0000.0001) > PTRACERS_numInUse=207,
(PID.TID 0000.0001) > PTRACERS_Iter0= 5644800,
(PID.TID 0000.0001) >#
(PID.TID 0000.0001) > PTRACERS_advScheme= 207*33,
(PID.TID 0000.0001) > PTRACERS_diffKh=    207*0.E3,
(PID.TID 0000.0001) > PTRACERS_diffKr=    207*1.E-5,
(PID.TID 0000.0001) > PTRACERS_useGMRedi= 207*.TRUE. ,
(PID.TID 0000.0001) ># PTRACERS_useKPP=    207*.TRUE. ,
(PID.TID 0000.0001) >#
(PID.TID 0000.0001) > PTRACERS_names(1)= 'DIC',
(PID.TID 0000.0001) > PTRACERS_names(2)= 'NH4',
(PID.TID 0000.0001) > PTRACERS_names(3)= 'NO2',
(PID.TID 0000.0001) > PTRACERS_names(4)= 'NO3',
(PID.TID 0000.0001) > PTRACERS_names(5)= 'PO4',
(PID.TID 0000.0001) > PTRACERS_names(6)= 'SiO2',
(PID.TID 0000.0001) > PTRACERS_names(7)= 'FeT',
(PID.TID 0000.0001) > PTRACERS_names(8)= 'DOC',
(PID.TID 0000.0001) > PTRACERS_names(9)= 'DON',
(PID.TID 0000.0001) > PTRACERS_names(10)= 'DOP',
(PID.TID 0000.0001) > PTRACERS_names(11)= 'DOFe',
(PID.TID 0000.0001) > PTRACERS_names(12)= 'POC',
(PID.TID 0000.0001) > PTRACERS_names(13)= 'PON',
(PID.TID 0000.0001) > PTRACERS_names(14)= 'POP',
(PID.TID 0000.0001) > PTRACERS_names(15)= 'POSi',
(PID.TID 0000.0001) > PTRACERS_names(16)= 'POFe',
(PID.TID 0000.0001) > PTRACERS_names(17)= 'PIC',
(PID.TID 0000.0001) > PTRACERS_names(18)= 'c01',
(PID.TID 0000.0001) > PTRACERS_names(19)= 'c02',
(PID.TID 0000.0001) > PTRACERS_names(20)= 'c03',
(PID.TID 0000.0001) > PTRACERS_names(21)= 'c04',
(PID.TID 0000.0001) > PTRACERS_names(22)= 'c05',
(PID.TID 0000.0001) > PTRACERS_names(23)= 'c06',
(PID.TID 0000.0001) > PTRACERS_names(24)= 'c07',
(PID.TID 0000.0001) > PTRACERS_names(25)= 'c08',
(PID.TID 0000.0001) > PTRACERS_names(26)= 'c09',
(PID.TID 0000.0001) > PTRACERS_names(27)= 'c10',
(PID.TID 0000.0001) > PTRACERS_names(28)= 'c11',
(PID.TID 0000.0001) > PTRACERS_names(29)= 'c12',
(PID.TID 0000.0001) > PTRACERS_names(30)= 'c13',
(PID.TID 0000.0001) > PTRACERS_names(31)= 'c14',
(PID.TID 0000.0001) > PTRACERS_names(32)= 'c15',
(PID.TID 0000.0001) > PTRACERS_names(33)= 'c16',
(PID.TID 0000.0001) > PTRACERS_names(34)= 'c17',
(PID.TID 0000.0001) > PTRACERS_names(35)= 'c18',
(PID.TID 0000.0001) > PTRACERS_names(36)= 'c19',
(PID.TID 0000.0001) > PTRACERS_names(37)= 'c20',
(PID.TID 0000.0001) > PTRACERS_names(38)= 'c21',
(PID.TID 0000.0001) > PTRACERS_names(39)= 'c22',
(PID.TID 0000.0001) > PTRACERS_names(40)= 'c23',
(PID.TID 0000.0001) > PTRACERS_names(41)= 'c24',
(PID.TID 0000.0001) > PTRACERS_names(42)= 'c25',
(PID.TID 0000.0001) > PTRACERS_names(43)= 'c26',
(PID.TID 0000.0001) > PTRACERS_names(44)= 'c27',
(PID.TID 0000.0001) > PTRACERS_names(45)= 'c28',
(PID.TID 0000.0001) > PTRACERS_names(46)= 'c29',
(PID.TID 0000.0001) > PTRACERS_names(47)= 'c30',
(PID.TID 0000.0001) > PTRACERS_names(48)= 'c31',
(PID.TID 0000.0001) > PTRACERS_names(49)= 'c32',
(PID.TID 0000.0001) > PTRACERS_names(50)= 'c33',
(PID.TID 0000.0001) > PTRACERS_names(51)= 'c34',
(PID.TID 0000.0001) > PTRACERS_names(52)= 'c35',
(PID.TID 0000.0001) > PTRACERS_names(53)= 'c36',
(PID.TID 0000.0001) > PTRACERS_names(54)= 'c37',
(PID.TID 0000.0001) > PTRACERS_names(55)= 'c38',
(PID.TID 0000.0001) > PTRACERS_names(56)= 'c39',
(PID.TID 0000.0001) > PTRACERS_names(57)= 'c40',
(PID.TID 0000.0001) > PTRACERS_names(58)= 'c41',
(PID.TID 0000.0001) > PTRACERS_names(59)= 'c42',
(PID.TID 0000.0001) > PTRACERS_names(60)= 'c43',
(PID.TID 0000.0001) > PTRACERS_names(61)= 'c44',
(PID.TID 0000.0001) > PTRACERS_names(62)= 'c45',
(PID.TID 0000.0001) > PTRACERS_names(63)= 'c46',
(PID.TID 0000.0001) > PTRACERS_names(64)= 'c47',
(PID.TID 0000.0001) > PTRACERS_names(65)= 'c48',
(PID.TID 0000.0001) > PTRACERS_names(66)= 'c49',
(PID.TID 0000.0001) > PTRACERS_names(67)= 'c50',
(PID.TID 0000.0001) > PTRACERS_names(68)= 'c51',
(PID.TID 0000.0001) > PTRACERS_names(69)= 'c52',
(PID.TID 0000.0001) > PTRACERS_names(70)= 'c53',
(PID.TID 0000.0001) > PTRACERS_names(71)= 'c54',
(PID.TID 0000.0001) > PTRACERS_names(72)= 'c55',
(PID.TID 0000.0001) > PTRACERS_names(73)= 'n01',
(PID.TID 0000.0001) > PTRACERS_names(74)= 'n02',
(PID.TID 0000.0001) > PTRACERS_names(75)= 'n03',
(PID.TID 0000.0001) > PTRACERS_names(76)= 'n04',
(PID.TID 0000.0001) > PTRACERS_names(77)= 'n05',
(PID.TID 0000.0001) > PTRACERS_names(78)= 'n06',
(PID.TID 0000.0001) > PTRACERS_names(79)= 'n07',
(PID.TID 0000.0001) > PTRACERS_names(80)= 'n08',
(PID.TID 0000.0001) > PTRACERS_names(81)= 'n09',
(PID.TID 0000.0001) > PTRACERS_names(82)= 'n10',
(PID.TID 0000.0001) > PTRACERS_names(83)= 'n11',
(PID.TID 0000.0001) > PTRACERS_names(84)= 'n12',
(PID.TID 0000.0001) > PTRACERS_names(85)= 'n13',
(PID.TID 0000.0001) > PTRACERS_names(86)= 'n14',
(PID.TID 0000.0001) > PTRACERS_names(87)= 'n15',
(PID.TID 0000.0001) > PTRACERS_names(88)= 'n16',
(PID.TID 0000.0001) > PTRACERS_names(89)= 'n17',
(PID.TID 0000.0001) > PTRACERS_names(90)= 'n18',
(PID.TID 0000.0001) > PTRACERS_names(91)= 'n19',
(PID.TID 0000.0001) > PTRACERS_names(92)= 'n20',
(PID.TID 0000.0001) > PTRACERS_names(93)= 'n21',
(PID.TID 0000.0001) > PTRACERS_names(94)= 'n22',
(PID.TID 0000.0001) > PTRACERS_names(95)= 'n23',
(PID.TID 0000.0001) > PTRACERS_names(96)= 'n24',
(PID.TID 0000.0001) > PTRACERS_names(97)= 'n25',
(PID.TID 0000.0001) > PTRACERS_names(98)= 'n26',
(PID.TID 0000.0001) > PTRACERS_names(99)= 'n27',
(PID.TID 0000.0001) > PTRACERS_names(100)= 'n28',
(PID.TID 0000.0001) > PTRACERS_names(101)= 'n29',
(PID.TID 0000.0001) > PTRACERS_names(102)= 'n30',
(PID.TID 0000.0001) > PTRACERS_names(103)= 'n31',
(PID.TID 0000.0001) > PTRACERS_names(104)= 'n32',
(PID.TID 0000.0001) > PTRACERS_names(105)= 'n33',
(PID.TID 0000.0001) > PTRACERS_names(106)= 'n34',
(PID.TID 0000.0001) > PTRACERS_names(107)= 'n35',
(PID.TID 0000.0001) > PTRACERS_names(108)= 'n36',
(PID.TID 0000.0001) > PTRACERS_names(109)= 'n37',
(PID.TID 0000.0001) > PTRACERS_names(110)= 'n38',
(PID.TID 0000.0001) > PTRACERS_names(111)= 'n39',
(PID.TID 0000.0001) > PTRACERS_names(112)= 'n40',
(PID.TID 0000.0001) > PTRACERS_names(113)= 'n41',
(PID.TID 0000.0001) > PTRACERS_names(114)= 'n42',
(PID.TID 0000.0001) > PTRACERS_names(115)= 'n43',
(PID.TID 0000.0001) > PTRACERS_names(116)= 'n44',
(PID.TID 0000.0001) > PTRACERS_names(117)= 'n45',
(PID.TID 0000.0001) > PTRACERS_names(118)= 'n46',
(PID.TID 0000.0001) > PTRACERS_names(119)= 'n47',
(PID.TID 0000.0001) > PTRACERS_names(120)= 'n48',
(PID.TID 0000.0001) > PTRACERS_names(121)= 'n49',
(PID.TID 0000.0001) > PTRACERS_names(122)= 'n50',
(PID.TID 0000.0001) > PTRACERS_names(123)= 'n51',
(PID.TID 0000.0001) > PTRACERS_names(124)= 'n52',
(PID.TID 0000.0001) > PTRACERS_names(125)= 'n53',
(PID.TID 0000.0001) > PTRACERS_names(126)= 'n54',
(PID.TID 0000.0001) > PTRACERS_names(127)= 'n55',
(PID.TID 0000.0001) > PTRACERS_names(128)= 'fe01',
(PID.TID 0000.0001) > PTRACERS_names(129)= 'fe02',
(PID.TID 0000.0001) > PTRACERS_names(130)= 'fe03',
(PID.TID 0000.0001) > PTRACERS_names(131)= 'fe04',
(PID.TID 0000.0001) > PTRACERS_names(132)= 'fe05',
(PID.TID 0000.0001) > PTRACERS_names(133)= 'fe06',
(PID.TID 0000.0001) > PTRACERS_names(134)= 'fe07',
(PID.TID 0000.0001) > PTRACERS_names(135)= 'fe08',
(PID.TID 0000.0001) > PTRACERS_names(136)= 'fe09',
(PID.TID 0000.0001) > PTRACERS_names(137)= 'fe10',
(PID.TID 0000.0001) > PTRACERS_names(138)= 'fe11',
(PID.TID 0000.0001) > PTRACERS_names(139)= 'fe12',
(PID.TID 0000.0001) > PTRACERS_names(140)= 'fe13',
(PID.TID 0000.0001) > PTRACERS_names(141)= 'fe14',
(PID.TID 0000.0001) > PTRACERS_names(142)= 'fe15',
(PID.TID 0000.0001) > PTRACERS_names(143)= 'fe16',
(PID.TID 0000.0001) > PTRACERS_names(144)= 'fe17',
(PID.TID 0000.0001) > PTRACERS_names(145)= 'fe18',
(PID.TID 0000.0001) > PTRACERS_names(146)= 'fe19',
(PID.TID 0000.0001) > PTRACERS_names(147)= 'fe20',
(PID.TID 0000.0001) > PTRACERS_names(148)= 'fe21',
(PID.TID 0000.0001) > PTRACERS_names(149)= 'fe22',
(PID.TID 0000.0001) > PTRACERS_names(150)= 'fe23',
(PID.TID 0000.0001) > PTRACERS_names(151)= 'fe24',
(PID.TID 0000.0001) > PTRACERS_names(152)= 'fe25',
(PID.TID 0000.0001) > PTRACERS_names(153)= 'fe26',
(PID.TID 0000.0001) > PTRACERS_names(154)= 'fe27',
(PID.TID 0000.0001) > PTRACERS_names(155)= 'fe28',
(PID.TID 0000.0001) > PTRACERS_names(156)= 'fe29',
(PID.TID 0000.0001) > PTRACERS_names(157)= 'fe30',
(PID.TID 0000.0001) > PTRACERS_names(158)= 'fe31',
(PID.TID 0000.0001) > PTRACERS_names(159)= 'fe32',
(PID.TID 0000.0001) > PTRACERS_names(160)= 'fe33',
(PID.TID 0000.0001) > PTRACERS_names(161)= 'fe34',
(PID.TID 0000.0001) > PTRACERS_names(162)= 'fe35',
(PID.TID 0000.0001) > PTRACERS_names(163)= 'fe36',
(PID.TID 0000.0001) > PTRACERS_names(164)= 'fe37',
(PID.TID 0000.0001) > PTRACERS_names(165)= 'fe38',
(PID.TID 0000.0001) > PTRACERS_names(166)= 'fe39',
(PID.TID 0000.0001) > PTRACERS_names(167)= 'fe40',
(PID.TID 0000.0001) > PTRACERS_names(168)= 'fe41',
(PID.TID 0000.0001) > PTRACERS_names(169)= 'fe42',
(PID.TID 0000.0001) > PTRACERS_names(170)= 'fe43',
(PID.TID 0000.0001) > PTRACERS_names(171)= 'fe44',
(PID.TID 0000.0001) > PTRACERS_names(172)= 'fe45',
(PID.TID 0000.0001) > PTRACERS_names(173)= 'fe46',
(PID.TID 0000.0001) > PTRACERS_names(174)= 'fe47',
(PID.TID 0000.0001) > PTRACERS_names(175)= 'fe48',
(PID.TID 0000.0001) > PTRACERS_names(176)= 'fe49',
(PID.TID 0000.0001) > PTRACERS_names(177)= 'fe50',
(PID.TID 0000.0001) > PTRACERS_names(178)= 'fe51',
(PID.TID 0000.0001) > PTRACERS_names(179)= 'fe52',
(PID.TID 0000.0001) > PTRACERS_names(180)= 'fe53',
(PID.TID 0000.0001) > PTRACERS_names(181)= 'fe54',
(PID.TID 0000.0001) > PTRACERS_names(182)= 'fe55',
(PID.TID 0000.0001) > PTRACERS_names(183)= 'Chl01',
(PID.TID 0000.0001) > PTRACERS_names(184)= 'Chl02',
(PID.TID 0000.0001) > PTRACERS_names(185)= 'Chl03',
(PID.TID 0000.0001) > PTRACERS_names(186)= 'Chl04',
(PID.TID 0000.0001) > PTRACERS_names(187)= 'Chl05',
(PID.TID 0000.0001) > PTRACERS_names(188)= 'Chl06',
(PID.TID 0000.0001) > PTRACERS_names(189)= 'Chl07',
(PID.TID 0000.0001) > PTRACERS_names(190)= 'Chl08',
(PID.TID 0000.0001) > PTRACERS_names(191)= 'Chl09',
(PID.TID 0000.0001) > PTRACERS_names(192)= 'Chl10',
(PID.TID 0000.0001) > PTRACERS_names(193)= 'Chl11',
(PID.TID 0000.0001) > PTRACERS_names(194)= 'Chl12',
(PID.TID 0000.0001) > PTRACERS_names(195)= 'Chl13',
(PID.TID 0000.0001) > PTRACERS_names(196)= 'Chl14',
(PID.TID 0000.0001) > PTRACERS_names(197)= 'Chl15',
(PID.TID 0000.0001) > PTRACERS_names(198)= 'Chl16',
(PID.TID 0000.0001) > PTRACERS_names(199)= 'Chl17',
(PID.TID 0000.0001) > PTRACERS_names(200)= 'Chl18',
(PID.TID 0000.0001) > PTRACERS_names(201)= 'Chl19',
(PID.TID 0000.0001) > PTRACERS_names(202)= 'Chl20',
(PID.TID 0000.0001) > PTRACERS_names(203)= 'Chl21',
(PID.TID 0000.0001) > PTRACERS_names(204)= 'Chl22',
(PID.TID 0000.0001) > PTRACERS_names(205)= 'Chl23',
(PID.TID 0000.0001) > PTRACERS_names(206)= 'Chl24',
(PID.TID 0000.0001) > PTRACERS_names(207)= 'Chl25',
(PID.TID 0000.0001) >#
(PID.TID 0000.0001) > PTRACERS_units(1)='mmol C/m^3'
(PID.TID 0000.0001) > PTRACERS_units(2)='mmol N/m^3'
(PID.TID 0000.0001) > PTRACERS_units(3)='mmol N/m^3'
(PID.TID 0000.0001) > PTRACERS_units(4)='mmol N/m^3'
(PID.TID 0000.0001) > PTRACERS_units(5)='mmol P/m^3'
(PID.TID 0000.0001) > PTRACERS_units(6)='mmol Si/m^3'
(PID.TID 0000.0001) > PTRACERS_units(7)='mmol Fe/m^3'
(PID.TID 0000.0001) > PTRACERS_units(8)='mmol C/m^3'
(PID.TID 0000.0001) > PTRACERS_units(9)='mmol N/m^3'
(PID.TID 0000.0001) > PTRACERS_units(10)='mmol P/m^3'
(PID.TID 0000.0001) > PTRACERS_units(11)='mmol Fe/m^3'
(PID.TID 0000.0001) > PTRACERS_units(12)='mmol C/m^3'
(PID.TID 0000.0001) > PTRACERS_units(13)='mmol N/m^3'
(PID.TID 0000.0001) > PTRACERS_units(14)='mmol P/m^3'
(PID.TID 0000.0001) > PTRACERS_units(15)='mmol Si/m^3'
(PID.TID 0000.0001) > PTRACERS_units(16)='mmol Fe/m^3'
(PID.TID 0000.0001) > PTRACERS_units(17)='mmol C/m^3'
(PID.TID 0000.0001) > PTRACERS_units(18:72)=55*'mmol C/m^3'
(PID.TID 0000.0001) > PTRACERS_units(73:127)=55*'mmol N/m^3'
(PID.TID 0000.0001) > PTRACERS_units(128:182)=55*'mmol Fe/m^3'
(PID.TID 0000.0001) > PTRACERS_units(183:207)=25*'mg Chl a/m^3'
(PID.TID 0000.0001) >#
(PID.TID 0000.0001) > PTRACERS_initialFile(1)='../input/input/dic_mmolm3_jan2004.bin',
(PID.TID 0000.0001) > PTRACERS_initialFile(2)='../input/input/NH4_run1_13_10y.bin',
(PID.TID 0000.0001) > PTRACERS_initialFile(3)='../input/input/NO2_run1_13_10y.bin',
(PID.TID 0000.0001) > PTRACERS_initialFile(4)='../input/input/lev01_nitrate_ann-3d.bin',
(PID.TID 0000.0001) >#PTRACERS_initialFile(5)='../input/input/loc1_PO4_run83_janprof.bin',
(PID.TID 0000.0001) >#PTRACERS_initialFile(6)='../input/input/loc1_SiO2_run83_janprof.bin',
(PID.TID 0000.0001) > PTRACERS_initialFile(7)='../input/input/payal_fet_ann-3d.bin',
(PID.TID 0000.0001) > PTRACERS_initialFile(8)='../input/input/DOC_run1_13_10y.bin',
(PID.TID 0000.0001) > PTRACERS_initialFile(9)='../input/input/DON_run1_13_10y.bin',
(PID.TID 0000.0001) >#PTRACERS_initialFile(10)='../input/input/loc1_DOP_run83_janprof.bin',
(PID.TID 0000.0001) > PTRACERS_initialFile(11)='../input/input/DOFe_run1_13_10y.bin',
(PID.TID 0000.0001) > PTRACERS_initialFile(12)='../input/input/POC_run1_13_10y.bin',
(PID.TID 0000.0001) > PTRACERS_initialFile(13)='../input/input/PON_run1_13_10y.bin',
(PID.TID 0000.0001) >#PTRACERS_initialFile(14)='../input/input/loc1_POP_run83_janprof.bin',
(PID.TID 0000.0001) >#PTRACERS_initialFile(15)='../input/input/loc1_POSi_run83_janprof.bin',
(PID.TID 0000.0001) > PTRACERS_initialFile(16)='../input/input/POFe_run1_13_10y.bin',
(PID.TID 0000.0001) >#PTRACERS_initialFile(17)='../input/input/loc1_PIC_run83_janprof.bin',
(PID.TID 0000.0001) > PTRACERS_initialFile(18:72)=55*'../input/input/C_bio_even.bin',
(PID.TID 0000.0001) > PTRACERS_initialFile(73:127)=55*'../input/input/N_bio_even.bin',
(PID.TID 0000.0001) > PTRACERS_initialFile(128:182)=55*'../input/input/Fe_bio_even.bin',
(PID.TID 0000.0001) > PTRACERS_initialFile(183:207)=25*'../input/input/Chl_bio_even.bin',
(PID.TID 0000.0001) ># PTRACERS_initialFile(19)='../input/input/loc1_C_biomass_janprof.bin',
(PID.TID 0000.0001) ># PTRACERS_initialFile(20)='../input/input/loc1_C_biomass_janprof.bin',
(PID.TID 0000.0001) ># PTRACERS_initialFile(21)='../input/input/loc1_C_biomass_janprof.bin',
(PID.TID 0000.0001) ># PTRACERS_initialFile(22)='../input/input/loc1_C_biomass_janprof.bin',
(PID.TID 0000.0001) ># PTRACERS_initialFile(23)='../input/input/loc1_C_biomass_janprof.bin',
(PID.TID 0000.0001) ># PTRACERS_initialFile(24)='../input/input/loc1_C_biomass_janprof.bin',
(PID.TID 0000.0001) ># PTRACERS_initialFile(25)='../input/input/loc1_C_biomass_janprof.bin',
(PID.TID 0000.0001) ># PTRACERS_initialFile(26)='../input/input/loc1_C_biomass_janprof.bin',
(PID.TID 0000.0001) ># PTRACERS_initialFile(27)='../input/input/loc1_C_biomass_janprof.bin',
(PID.TID 0000.0001) ># PTRACERS_initialFile(28)='../input/input/loc1_C_biomass_janprof.bin',
(PID.TID 0000.0001) ># PTRACERS_initialFile(29)='../input/input/loc1_C_biomass_janprof.bin',
(PID.TID 0000.0001) ># PTRACERS_initialFile(30)='../input/input/loc1_C_biomass_janprof.bin',
(PID.TID 0000.0001) ># PTRACERS_initialFile(31)='../input/input/loc1_C_biomass_janprof.bin',
(PID.TID 0000.0001) ># PTRACERS_initialFile(32)='../input/input/loc1_C_biomass_janprof.bin',
(PID.TID 0000.0001) ># PTRACERS_initialFile(33)='../input/input/loc1_C_biomass_janprof.bin',
(PID.TID 0000.0001) ># PTRACERS_initialFile(34)='../input/input/loc1_N_biomass_janprof.bin',
(PID.TID 0000.0001) ># PTRACERS_initialFile(35)='../input/input/loc1_N_biomass_janprof.bin',
(PID.TID 0000.0001) ># PTRACERS_initialFile(36)='../input/input/loc1_N_biomass_janprof.bin',
(PID.TID 0000.0001) ># PTRACERS_initialFile(37)='../input/input/loc1_N_biomass_janprof.bin',
(PID.TID 0000.0001) ># PTRACERS_initialFile(38)='../input/input/loc1_N_biomass_janprof.bin',
(PID.TID 0000.0001) ># PTRACERS_initialFile(39)='../input/input/loc1_N_biomass_janprof.bin',
(PID.TID 0000.0001) ># PTRACERS_initialFile(40)='../input/input/loc1_N_biomass_janprof.bin',
(PID.TID 0000.0001) ># PTRACERS_initialFile(41)='../input/input/loc1_N_biomass_janprof.bin',
(PID.TID 0000.0001) ># PTRACERS_initialFile(42)='../input/input/loc1_N_biomass_janprof.bin',
(PID.TID 0000.0001) ># PTRACERS_initialFile(43)='../input/input/loc1_N_biomass_janprof.bin',
(PID.TID 0000.0001) ># PTRACERS_initialFile(44)='../input/input/loc1_N_biomass_janprof.bin',
(PID.TID 0000.0001) ># PTRACERS_initialFile(45)='../input/input/loc1_N_biomass_janprof.bin',
(PID.TID 0000.0001) ># PTRACERS_initialFile(46)='../input/input/loc1_N_biomass_janprof.bin',
(PID.TID 0000.0001) ># PTRACERS_initialFile(47)='../input/input/loc1_N_biomass_janprof.bin',
(PID.TID 0000.0001) ># PTRACERS_initialFile(48)='../input/input/loc1_N_biomass_janprof.bin',
(PID.TID 0000.0001) ># PTRACERS_initialFile(49)='../input/input/loc1_N_biomass_janprof.bin',
(PID.TID 0000.0001) ># PTRACERS_initialFile(50)='../input/input/loc1_Fe_biomass_janprof.bin',
(PID.TID 0000.0001) ># PTRACERS_initialFile(51)='../input/input/loc1_Fe_biomass_janprof.bin',
(PID.TID 0000.0001) ># PTRACERS_initialFile(52)='../input/input/loc1_Fe_biomass_janprof.bin',
(PID.TID 0000.0001) ># PTRACERS_initialFile(53)='../input/input/loc1_Fe_biomass_janprof.bin',
(PID.TID 0000.0001) ># PTRACERS_initialFile(54)='../input/input/loc1_Fe_biomass_janprof.bin',
(PID.TID 0000.0001) ># PTRACERS_initialFile(55)='../input/input/loc1_Fe_biomass_janprof.bin',
(PID.TID 0000.0001) ># PTRACERS_initialFile(56)='../input/input/loc1_Fe_biomass_janprof.bin',
(PID.TID 0000.0001) ># PTRACERS_initialFile(57)='../input/input/loc1_Fe_biomass_janprof.bin',
(PID.TID 0000.0001) ># PTRACERS_initialFile(58)='../input/input/loc1_Fe_biomass_janprof.bin',
(PID.TID 0000.0001) ># PTRACERS_initialFile(59)='../input/input/loc1_Fe_biomass_janprof.bin',
(PID.TID 0000.0001) ># PTRACERS_initialFile(60)='../input/input/loc1_Fe_biomass_janprof.bin',
(PID.TID 0000.0001) ># PTRACERS_initialFile(61)='../input/input/loc1_Fe_biomass_janprof.bin',
(PID.TID 0000.0001) ># PTRACERS_initialFile(62)='../input/input/loc1_Fe_biomass_janprof.bin',
(PID.TID 0000.0001) ># PTRACERS_initialFile(63)='../input/input/loc1_Fe_biomass_janprof.bin',
(PID.TID 0000.0001) ># PTRACERS_initialFile(64)='../input/input/loc1_Fe_biomass_janprof.bin',
(PID.TID 0000.0001) ># PTRACERS_initialFile(65)='../input/input/loc1_Fe_biomass_janprof.bin',
(PID.TID 0000.0001) ># PTRACERS_initialFile(66)='../input/input/loc1_chlorophyll_janprof.bin',
(PID.TID 0000.0001) ># PTRACERS_initialFile(67)='../input/input/loc1_chlorophyll_janprof.bin',
(PID.TID 0000.0001) ># PTRACERS_initialFile(68)='../input/input/loc1_chlorophyll_janprof.bin',
(PID.TID 0000.0001) ># PTRACERS_initialFile(69)='../input/input/loc1_chlorophyll_janprof.bin',
(PID.TID 0000.0001) ># PTRACERS_initialFile(70)='../input/input/loc1_chlorophyll_janprof.bin',
(PID.TID 0000.0001) ># PTRACERS_initialFile(71)='../input/input/loc1_chlorophyll_janprof.bin',
(PID.TID 0000.0001) ># PTRACERS_initialFile(72)='../input/input/loc1_chlorophyll_janprof.bin',
(PID.TID 0000.0001) ># PTRACERS_initialFile(73)='../input/input/loc1_chlorophyll_janprof.bin',
(PID.TID 0000.0001) ># PTRACERS_initialFile(74)='../input/input/loc1_chlorophyll_janprof.bin',
(PID.TID 0000.0001) ># PTRACERS_initialFile(75)='../input/input/loc1_chlorophyll_janprof.bin',
(PID.TID 0000.0001) ># PTRACERS_initialFile(76)='../input/input/loc1_chlorophyll_janprof.bin',
(PID.TID 0000.0001) ># PTRACERS_initialFile(77)='../input/input/loc1_chlorophyll_janprof.bin',
(PID.TID 0000.0001) ># PTRACERS_initialFile(78)='../input/input/loc1_chlorophyll_janprof.bin',
(PID.TID 0000.0001) ># PTRACERS_initialFile(79)='../input/input/loc1_chlorophyll_janprof.bin',
(PID.TID 0000.0001) ># PTRACERS_initialFile(80)='../input/input/loc1_chlorophyll_janprof.bin',
(PID.TID 0000.0001) ># PTRACERS_ref(1:5,18:72)= 80*1.0,
(PID.TID 0000.0001) ># PTRACERS_ref(1:5,73:127)= 80*0.133333,
(PID.TID 0000.0001) ># PTRACERS_ref(1:5,128:182)= 80*0.00001,
(PID.TID 0000.0001) ># PTRACERS_ref(1:5,183:207)= 75*0.15,
(PID.TID 0000.0001) > /
(PID.TID 0000.0001) 
(PID.TID 0000.0001)  PTRACERS_READPARMS: finished reading data.ptracers
(PID.TID 0000.0001)  GCHEM_READPARMS: opening data.gchem
(PID.TID 0000.0001)  OPEN_COPY_DATA_FILE: opening file data.gchem
(PID.TID 0000.0001) // =======================================================
(PID.TID 0000.0001) // Parameter file "data.gchem"
(PID.TID 0000.0001) // =======================================================
(PID.TID 0000.0001) > &GCHEM_PARM01
(PID.TID 0000.0001) >  useDARWIN=.TRUE.,
(PID.TID 0000.0001) >  nsubtime=2,
(PID.TID 0000.0001) > /
(PID.TID 0000.0001) 
(PID.TID 0000.0001)  GCHEM_READPARMS: finished reading data.gchem
(PID.TID 0000.0001)  DARWIN_READPARMS: opening data.darwin
(PID.TID 0000.0001)  OPEN_COPY_DATA_FILE: opening file data.darwin
(PID.TID 0000.0001) // =======================================================
(PID.TID 0000.0001) // Parameter file "data.darwin"
(PID.TID 0000.0001) // =======================================================
(PID.TID 0000.0001) > &DARWIN_FORCING_PARAMS
(PID.TID 0000.0001) > /
(PID.TID 0000.0001) > &DARWIN_EXF_PARAMS
(PID.TID 0000.0001) > iceFile='../input/input/nasa_icefraction_mth-2d.bin',
(PID.TID 0000.0001) > ironFile='../input/input/mahowald2009_solubile_current_smooth_oce_mth-2d.bin',
(PID.TID 0000.0001) > PARFile='../input/input/par_ecco.bin_mth-2d.bin',
(PID.TID 0000.0001) ># NO3_RelaxFile='/home/stephd/Input/input_ecco/lev01_nitrate_mth-3d.bin',
(PID.TID 0000.0001) ># darwin_relaxScale=31104000.,
(PID.TID 0000.0001) > icePeriod= -12.,
(PID.TID 0000.0001) > ironPeriod= -12.,
(PID.TID 0000.0001) > PARPeriod= -12.,
(PID.TID 0000.0001) > darwin_inscal_iron= 1000.,
(PID.TID 0000.0001) > darwin_inscal_PAR= 11.574074074074,
(PID.TID 0000.0001) >#darwin_PO4_fluxFile= '../input/input/ann_nphos_flux.bin',
(PID.TID 0000.0001) >#darwin_NO3_fluxFile= '../input/input/ann_nnitr_flux.bin',
(PID.TID 0000.0001) >#darwin_Si_fluxFile= '../input/input/ann_nsil_flux.bin',
(PID.TID 0000.0001) > /
(PID.TID 0000.0001) > &DARWIN_PARAMS
(PID.TID 0000.0001) > darwin_seed= 56,
(PID.TID 0000.0001) > darwin_linFSConserve= .TRUE.,
(PID.TID 0000.0001) > darwin_allometric= .TRUE.,
(PID.TID 0000.0001) > KDOC=  2.3148148148148148e-07,  ! .02/day
(PID.TID 0000.0001) > KDON=  2.3148148148148148e-07,
(PID.TID 0000.0001) > KDOP=  2.3148148148148148e-07,
(PID.TID 0000.0001) > KDOFe= 2.3148148148148148e-07,
(PID.TID 0000.0001) > KPOC=  4.6296296296296297e-07,  ! .04/day
(PID.TID 0000.0001) > KPON=  4.6296296296296297e-07,
(PID.TID 0000.0001) > KPOP=  4.6296296296296297e-07,
(PID.TID 0000.0001) > KPOFe= 4.6296296296296297e-07,
(PID.TID 0000.0001) > KPOSi= 3.819444444444444e-08,   ! .0033/day,
(PID.TID 0000.0001) ># alpfe= 0.05D0,  ! 1D model
(PID.TID 0000.0001) > alpfe= 1.0D0,   ! 3D model
(PID.TID 0000.0001) > scav= 5.092592592592593e-08  ! 4.4D-3/day,
(PID.TID 0000.0001) > freefemax= .1D-3
(PID.TID 0000.0001) > depthfesed= 1000D0,
(PID.TID 0000.0001) > katten_chl= .03D0,
(PID.TID 0000.0001) > PARmin= 0.1D0,
(PID.TID 0000.0001) > PAR_oxi = 0.0,
(PID.TID 0000.0001) > phygrazmin= 0.,
(PID.TID 0000.0001) >#knita=0.,
(PID.TID 0000.0001) > synthcost= 2.33D0,
(PID.TID 0000.0001) > phymin= 0.,
(PID.TID 0000.0001) > /
(PID.TID 0000.0001) > &DARWIN_RADTRANS_PARAMS
(PID.TID 0000.0001) > /
(PID.TID 0000.0001) > &DARWIN_TRAIT_PARAMS
(PID.TID 0000.0001) > tempmax = 20.0,
(PID.TID 0000.0001) > temprange = 22.0,
(PID.TID 0000.0001) > val_R_PC=0.,
(PID.TID 0000.0001) > val_R_PC_ZOO=0.,
(PID.TID 0000.0001) > /
(PID.TID 0000.0001) > &DARWIN_ALLOMETRIC_PARAMS
(PID.TID 0000.0001) > nPro=2,
(PID.TID 0000.0001) > nSyn=3,
(PID.TID 0000.0001) > nEuk=5,
(PID.TID 0000.0001) > nDiatom=15,
(PID.TID 0000.0001) > ngrazer=30,
(PID.TID 0000.0001) > pp_sig_val=0.5,
(PID.TID 0000.0001) > /
(PID.TID 0000.0001) 
(PID.TID 0000.0001)  ===================================
(PID.TID 0000.0001)  DIAGNOSTICS_READPARMS: opening data.diagnostics
(PID.TID 0000.0001)  OPEN_COPY_DATA_FILE: opening file data.diagnostics
(PID.TID 0000.0001) // =======================================================
(PID.TID 0000.0001) // Parameter file "data.diagnostics"
(PID.TID 0000.0001) // =======================================================
(PID.TID 0000.0001) > &diagnostics_list
(PID.TID 0000.0001) > filename(1)= 'darwin',
(PID.TID 0000.0001) > frequency(1)= 10800.,
(PID.TID 0000.0001) > fields(1,1)= 'TRAC01  ',
(PID.TID 0000.0001) > fields(2,1)= 'TRAC02  ',
(PID.TID 0000.0001) > fields(3,1)= 'TRAC03  ',
(PID.TID 0000.0001) > fields(4,1)= 'TRAC04  ',
(PID.TID 0000.0001) > fields(5,1)= 'TRAC05  ',
(PID.TID 0000.0001) > fields(6,1)= 'TRAC06  ',
(PID.TID 0000.0001) > fields(7,1)= 'TRAC07  ',
(PID.TID 0000.0001) > fields(8,1)= 'TRAC08  ',
(PID.TID 0000.0001) > fields(9,1)= 'TRAC09  ',
(PID.TID 0000.0001) > fields(10,1)= 'TRAC10  ',
(PID.TID 0000.0001) > fields(11,1)= 'TRAC11  ',
(PID.TID 0000.0001) > fields(12,1)= 'TRAC12  ',
(PID.TID 0000.0001) > fields(13,1)= 'TRAC13  ',
(PID.TID 0000.0001) > fields(14,1)= 'TRAC14  ',
(PID.TID 0000.0001) > fields(15,1)= 'TRAC15  ',
(PID.TID 0000.0001) > fields(16,1)= 'TRAC16  ',
(PID.TID 0000.0001) > fields(17,1)= 'TRAC17  ',
(PID.TID 0000.0001) > fields(18,1)= 'TRAC18  ',
(PID.TID 0000.0001) > fields(19,1)= 'TRAC19  ',
(PID.TID 0000.0001) > fields(20,1)= 'TRAC20  ',
(PID.TID 0000.0001) > fields(21,1)= 'TRAC21  ',
(PID.TID 0000.0001) > fields(22,1)= 'TRAC22  ',
(PID.TID 0000.0001) > fields(23,1)= 'TRAC23  ',
(PID.TID 0000.0001) > fields(24,1)= 'TRAC24  ',
(PID.TID 0000.0001) > fields(25,1)= 'TRAC25  ',
(PID.TID 0000.0001) > fields(26,1)= 'TRAC26  ',
(PID.TID 0000.0001) > fields(27,1)= 'TRAC27  ',
(PID.TID 0000.0001) > fields(28,1)= 'TRAC28  ',
(PID.TID 0000.0001) > fields(29,1)= 'TRAC29  ',
(PID.TID 0000.0001) > fields(30,1)= 'TRAC30  ',
(PID.TID 0000.0001) > fields(31,1)= 'TRAC31  ',
(PID.TID 0000.0001) > fields(32,1)= 'TRAC32  ',
(PID.TID 0000.0001) > fields(33,1)= 'TRAC33  ',
(PID.TID 0000.0001) > fields(34,1)= 'TRAC34  ',
(PID.TID 0000.0001) > fields(35,1)= 'TRAC35  ',
(PID.TID 0000.0001) > fields(36,1)= 'TRAC36  ',
(PID.TID 0000.0001) > fields(37,1)= 'TRAC37  ',
(PID.TID 0000.0001) > fields(38,1)= 'TRAC38  ',
(PID.TID 0000.0001) > fields(39,1)= 'TRAC39  ',
(PID.TID 0000.0001) > fields(40,1)= 'TRAC40  ',
(PID.TID 0000.0001) > fields(41,1)= 'TRAC41  ',
(PID.TID 0000.0001) > fields(42,1)= 'TRAC42  ',
(PID.TID 0000.0001) > fields(43,1)= 'TRAC43  ',
(PID.TID 0000.0001) > fields(44,1)= 'TRAC44  ',
(PID.TID 0000.0001) > fields(45,1)= 'TRAC45  ',
(PID.TID 0000.0001) > fields(46,1)= 'TRAC46  ',
(PID.TID 0000.0001) > fields(47,1)= 'TRAC47  ',
(PID.TID 0000.0001) > fields(48,1)= 'TRAC48  ',
(PID.TID 0000.0001) > fields(49,1)= 'TRAC49  ',
(PID.TID 0000.0001) > fields(50,1)= 'TRAC50  ',
(PID.TID 0000.0001) > fields(51,1)= 'TRAC51  ',
(PID.TID 0000.0001) > fields(52,1)= 'TRAC52  ',
(PID.TID 0000.0001) > fields(53,1)= 'TRAC53  ',
(PID.TID 0000.0001) > fields(54,1)= 'TRAC54  ',
(PID.TID 0000.0001) > fields(55,1)= 'TRAC55  ',
(PID.TID 0000.0001) > fields(56,1)= 'TRAC56  ',
(PID.TID 0000.0001) > fields(57,1)= 'TRAC57  ',
(PID.TID 0000.0001) > fields(58,1)= 'TRAC58  ',
(PID.TID 0000.0001) > fields(59,1)= 'TRAC59  ',
(PID.TID 0000.0001) > fields(60,1)= 'TRAC60  ',
(PID.TID 0000.0001) > fields(61,1)= 'TRAC61  ',
(PID.TID 0000.0001) > fields(62,1)= 'TRAC62  ',
(PID.TID 0000.0001) > fields(63,1)= 'TRAC63  ',
(PID.TID 0000.0001) > fields(64,1)= 'TRAC64  ',
(PID.TID 0000.0001) > fields(65,1)= 'TRAC65  ',
(PID.TID 0000.0001) > fields(66,1)= 'TRAC66  ',
(PID.TID 0000.0001) > fields(67,1)= 'TRAC67  ',
(PID.TID 0000.0001) > fields(68,1)= 'TRAC68  ',
(PID.TID 0000.0001) > fields(69,1)= 'TRAC69  ',
(PID.TID 0000.0001) > fields(70,1)= 'TRAC70  ',
(PID.TID 0000.0001) > fields(71,1)= 'TRAC71  ',
(PID.TID 0000.0001) > fields(72,1)= 'TRAC72  ',
(PID.TID 0000.0001) > fields(73,1)= 'TRAC73  ',
(PID.TID 0000.0001) > fields(74,1)= 'TRAC74  ',
(PID.TID 0000.0001) > fields(75,1)= 'TRAC75  ',
(PID.TID 0000.0001) > fields(76,1)= 'TRAC76  ',
(PID.TID 0000.0001) > fields(77,1)= 'TRAC77  ',
(PID.TID 0000.0001) > fields(78,1)= 'TRAC78  ',
(PID.TID 0000.0001) > fields(79,1)= 'TRAC79  ',
(PID.TID 0000.0001) > fields(80,1)= 'TRAC80  ',
(PID.TID 0000.0001) > fields(81,1)= 'TRAC81  ',
(PID.TID 0000.0001) > fields(82,1)= 'TRAC82  ',
(PID.TID 0000.0001) > fields(83,1)= 'TRAC83  ',
(PID.TID 0000.0001) > fields(84,1)= 'TRAC84  ',
(PID.TID 0000.0001) > fields(85,1)= 'TRAC85  ',
(PID.TID 0000.0001) > fields(86,1)= 'TRAC86  ',
(PID.TID 0000.0001) > fields(87,1)= 'TRAC87  ',
(PID.TID 0000.0001) > fields(88,1)= 'TRAC88  ',
(PID.TID 0000.0001) > fields(89,1)= 'TRAC89  ',
(PID.TID 0000.0001) > fields(90,1)= 'TRAC90  ',
(PID.TID 0000.0001) > fields(91,1)= 'TRAC91  ',
(PID.TID 0000.0001) > fields(92,1)= 'TRAC92  ',
(PID.TID 0000.0001) > fields(93,1)= 'TRAC93  ',
(PID.TID 0000.0001) > fields(94,1)= 'TRAC94  ',
(PID.TID 0000.0001) > fields(95,1)= 'TRAC95  ',
(PID.TID 0000.0001) > fields(96,1)= 'TRAC96  ',
(PID.TID 0000.0001) > fields(97,1)= 'TRAC97  ',
(PID.TID 0000.0001) > fields(98,1)= 'TRAC98  ',
(PID.TID 0000.0001) > fields(99,1)= 'TRAC99  ',
(PID.TID 0000.0001) > fields(100,1)= 'TRAC0a  ',
(PID.TID 0000.0001) > fields(101,1)= 'TRAC0b  ',
(PID.TID 0000.0001) > fields(102,1)= 'TRAC0c  ',
(PID.TID 0000.0001) > fields(103,1)= 'TRAC0d  ',
(PID.TID 0000.0001) > fields(104,1)= 'TRAC0e  ',
(PID.TID 0000.0001) > fields(105,1)= 'TRAC0f  ',
(PID.TID 0000.0001) > fields(106,1)= 'TRAC0g  ',
(PID.TID 0000.0001) > fields(107,1)= 'TRAC0h  ',
(PID.TID 0000.0001) > fields(108,1)= 'TRAC0i  ',
(PID.TID 0000.0001) > fields(109,1)= 'TRAC0j  ',
(PID.TID 0000.0001) > fields(110,1)= 'TRAC0k  ',
(PID.TID 0000.0001) > fields(111,1)= 'TRAC0l  ',
(PID.TID 0000.0001) > fields(112,1)= 'TRAC0m  ',
(PID.TID 0000.0001) > fields(113,1)= 'TRAC0n  ',
(PID.TID 0000.0001) > fields(114,1)= 'TRAC0o  ',
(PID.TID 0000.0001) > fields(115,1)= 'TRAC0p  ',
(PID.TID 0000.0001) > fields(116,1)= 'TRAC0q  ',
(PID.TID 0000.0001) > fields(117,1)= 'TRAC0r  ',
(PID.TID 0000.0001) > fields(118,1)= 'TRAC0s  ',
(PID.TID 0000.0001) > fields(119,1)= 'TRAC0t  ',
(PID.TID 0000.0001) > fields(120,1)= 'TRAC0u  ',
(PID.TID 0000.0001) > fields(121,1)= 'TRAC0v  ',
(PID.TID 0000.0001) > fields(122,1)= 'TRAC0w  ',
(PID.TID 0000.0001) > fields(123,1)= 'TRAC0x  ',
(PID.TID 0000.0001) > fields(124,1)= 'TRAC0y  ',
(PID.TID 0000.0001) > fields(125,1)= 'TRAC0z  ',
(PID.TID 0000.0001) > fields(126,1)= 'TRAC0A  ',
(PID.TID 0000.0001) > fields(127,1)= 'TRAC0B  ',
(PID.TID 0000.0001) > fields(128,1)= 'TRAC0C  ',
(PID.TID 0000.0001) > fields(129,1)= 'TRAC0D  ',
(PID.TID 0000.0001) > fields(130,1)= 'TRAC0E  ',
(PID.TID 0000.0001) > fields(131,1)= 'TRAC0F  ',
(PID.TID 0000.0001) > fields(132,1)= 'TRAC0G  ',
(PID.TID 0000.0001) > fields(133,1)= 'TRAC0H  ',
(PID.TID 0000.0001) > fields(134,1)= 'TRAC0I  ',
(PID.TID 0000.0001) > fields(135,1)= 'TRAC0J  ',
(PID.TID 0000.0001) > fields(136,1)= 'TRAC0K  ',
(PID.TID 0000.0001) > fields(137,1)= 'TRAC0L  ',
(PID.TID 0000.0001) > fields(138,1)= 'TRAC0M  ',
(PID.TID 0000.0001) > fields(139,1)= 'TRAC0N  ',
(PID.TID 0000.0001) > fields(140,1)= 'TRAC0O  ',
(PID.TID 0000.0001) > fields(141,1)= 'TRAC0P  ',
(PID.TID 0000.0001) > fields(142,1)= 'TRAC0Q  ',
(PID.TID 0000.0001) > fields(143,1)= 'TRAC0R  ',
(PID.TID 0000.0001) > fields(144,1)= 'TRAC0S  ',
(PID.TID 0000.0001) > fields(145,1)= 'TRAC0T  ',
(PID.TID 0000.0001) > fields(146,1)= 'TRAC0U  ',
(PID.TID 0000.0001) > fields(147,1)= 'TRAC0V  ',
(PID.TID 0000.0001) > fields(148,1)= 'TRAC0W  ',
(PID.TID 0000.0001) > fields(149,1)= 'TRAC0X  ',
(PID.TID 0000.0001) > fields(150,1)= 'TRAC0Y  ',
(PID.TID 0000.0001) > fields(151,1)= 'TRAC0Z  ',
(PID.TID 0000.0001) > fields(152,1)= 'TRAC1a  ',
(PID.TID 0000.0001) > fields(153,1)= 'TRAC1b  ',
(PID.TID 0000.0001) > fields(154,1)= 'TRAC1c  ',
(PID.TID 0000.0001) > fields(155,1)= 'TRAC1d  ',
(PID.TID 0000.0001) > fields(156,1)= 'TRAC1e  ',
(PID.TID 0000.0001) > fields(157,1)= 'TRAC1f  ',
(PID.TID 0000.0001) > fields(158,1)= 'TRAC1g  ',
(PID.TID 0000.0001) > fields(159,1)= 'TRAC1h  ',
(PID.TID 0000.0001) > fields(160,1)= 'TRAC1i  ',
(PID.TID 0000.0001) > fields(161,1)= 'TRAC1j  ',
(PID.TID 0000.0001) > fields(162,1)= 'TRAC1k  ',
(PID.TID 0000.0001) > fields(163,1)= 'TRAC1l  ',
(PID.TID 0000.0001) > fields(164,1)= 'TRAC1m  ',
(PID.TID 0000.0001) > fields(165,1)= 'TRAC1n  ',
(PID.TID 0000.0001) > fields(166,1)= 'TRAC1o  ',
(PID.TID 0000.0001) > fields(167,1)= 'TRAC1p  ',
(PID.TID 0000.0001) > fields(168,1)= 'TRAC1q  ',
(PID.TID 0000.0001) > fields(169,1)= 'TRAC1r  ',
(PID.TID 0000.0001) > fields(170,1)= 'TRAC1s  ',
(PID.TID 0000.0001) > fields(171,1)= 'TRAC1t  ',
(PID.TID 0000.0001) > fields(172,1)= 'TRAC1u  ',
(PID.TID 0000.0001) > fields(173,1)= 'TRAC1v  ',
(PID.TID 0000.0001) > fields(174,1)= 'TRAC1w  ',
(PID.TID 0000.0001) > fields(175,1)= 'TRAC1x  ',
(PID.TID 0000.0001) > fields(176,1)= 'TRAC1y  ',
(PID.TID 0000.0001) > fields(177,1)= 'TRAC1z  ',
(PID.TID 0000.0001) > fields(178,1)= 'TRAC1A  ',
(PID.TID 0000.0001) > fields(179,1)= 'TRAC1B  ',
(PID.TID 0000.0001) > fields(180,1)= 'TRAC1C  ',
(PID.TID 0000.0001) > fields(181,1)= 'TRAC1D  ',
(PID.TID 0000.0001) > fields(182,1)= 'TRAC1E  ',
(PID.TID 0000.0001) > fields(183,1)= 'TRAC1F  ',
(PID.TID 0000.0001) > fields(184,1)= 'TRAC1G  ',
(PID.TID 0000.0001) > fields(185,1)= 'TRAC1H  ',
(PID.TID 0000.0001) > fields(186,1)= 'TRAC1I  ',
(PID.TID 0000.0001) > fields(187,1)= 'TRAC1J  ',
(PID.TID 0000.0001) > fields(188,1)= 'TRAC1K  ',
(PID.TID 0000.0001) > fields(189,1)= 'TRAC1L  ',
(PID.TID 0000.0001) > fields(190,1)= 'TRAC1M  ',
(PID.TID 0000.0001) > fields(191,1)= 'TRAC1N  ',
(PID.TID 0000.0001) > fields(192,1)= 'TRAC1O  ',
(PID.TID 0000.0001) > fields(193,1)= 'TRAC1P  ',
(PID.TID 0000.0001) > fields(194,1)= 'TRAC1Q  ',
(PID.TID 0000.0001) > fields(195,1)= 'TRAC1R  ',
(PID.TID 0000.0001) > fields(196,1)= 'TRAC1S  ',
(PID.TID 0000.0001) > fields(197,1)= 'TRAC1T  ',
(PID.TID 0000.0001) > fields(198,1)= 'TRAC1U  ',
(PID.TID 0000.0001) > fields(199,1)= 'TRAC1V  ',
(PID.TID 0000.0001) > fields(200,1)= 'TRAC1W  ',
(PID.TID 0000.0001) > fields(201,1)= 'TRAC1X  ',
(PID.TID 0000.0001) > fields(202,1)= 'TRAC1Y  ',
(PID.TID 0000.0001) > fields(203,1)= 'TRAC1Z  ',
(PID.TID 0000.0001) > fields(204,1)= 'TRAC2a  ',
(PID.TID 0000.0001) > fields(205,1)= 'TRAC2b  ',
(PID.TID 0000.0001) > fields(206,1)= 'TRAC2c  ',
(PID.TID 0000.0001) > fields(207,1)= 'TRAC2d  ',
(PID.TID 0000.0001) > /
(PID.TID 0000.0001) > &diag_statis_parms
(PID.TID 0000.0001) > /
(PID.TID 0000.0001) 
(PID.TID 0000.0001) S/R DIAGNOSTICS_READPARMS, read namelist "diagnostics_list": start
(PID.TID 0000.0001) S/R DIAGNOSTICS_READPARMS, read namelist "diagnostics_list": OK
(PID.TID 0000.0001) S/R DIAGNOSTICS_READPARMS, read namelist "DIAG_STATIS_PARMS": start
(PID.TID 0000.0001) S/R DIAGNOSTICS_READPARMS, read namelist "DIAG_STATIS_PARMS": OK
(PID.TID 0000.0001)  DIAGNOSTICS_READPARMS: global parameter summary:
(PID.TID 0000.0001)  dumpAtLast = /* always write time-ave diags at the end */
(PID.TID 0000.0001)                   F
(PID.TID 0000.0001)     ;
(PID.TID 0000.0001)  diag_mnc =   /* write NetCDF output files */
(PID.TID 0000.0001)                   T
(PID.TID 0000.0001)     ;
(PID.TID 0000.0001)  useMissingValue = /* put MissingValue where mask = 0 */
(PID.TID 0000.0001)                   F
(PID.TID 0000.0001)     ;
(PID.TID 0000.0001)  diagCG_maxIters = /* max number of iters in diag_cg2d */
(PID.TID 0000.0001)                    1000
(PID.TID 0000.0001)     ;
(PID.TID 0000.0001)  diagCG_resTarget = /* residual target for diag_cg2d */
(PID.TID 0000.0001)                 1.000000000000000E-13
(PID.TID 0000.0001)     ;
(PID.TID 0000.0001) -----------------------------------------------------
(PID.TID 0000.0001)  DIAGNOSTICS_READPARMS: active diagnostics summary:
(PID.TID 0000.0001) -----------------------------------------------------
(PID.TID 0000.0001) Creating Output Stream: darwin
(PID.TID 0000.0001) Output Frequency:      10800.000000 ; Phase:           0.000000
(PID.TID 0000.0001)  Averaging Freq.:      10800.000000 , Phase:           0.000000 , Cycle:   1
(PID.TID 0000.0001)  missing value:  1.234567000000E+05 ; for integers:   123456789
(PID.TID 0000.0001)  Levels:    will be set later
(PID.TID 0000.0001)  Fields:    TRAC01   TRAC02   TRAC03   TRAC04   TRAC05   TRAC06   TRAC07   TRAC08   TRAC09   TRAC10
(PID.TID 0000.0001)  Fields:    TRAC11   TRAC12   TRAC13   TRAC14   TRAC15   TRAC16   TRAC17   TRAC18   TRAC19   TRAC20
(PID.TID 0000.0001)  Fields:    TRAC21   TRAC22   TRAC23   TRAC24   TRAC25   TRAC26   TRAC27   TRAC28   TRAC29   TRAC30
(PID.TID 0000.0001)  Fields:    TRAC31   TRAC32   TRAC33   TRAC34   TRAC35   TRAC36   TRAC37   TRAC38   TRAC39   TRAC40
(PID.TID 0000.0001)  Fields:    TRAC41   TRAC42   TRAC43   TRAC44   TRAC45   TRAC46   TRAC47   TRAC48   TRAC49   TRAC50
(PID.TID 0000.0001)  Fields:    TRAC51   TRAC52   TRAC53   TRAC54   TRAC55   TRAC56   TRAC57   TRAC58   TRAC59   TRAC60
(PID.TID 0000.0001)  Fields:    TRAC61   TRAC62   TRAC63   TRAC64   TRAC65   TRAC66   TRAC67   TRAC68   TRAC69   TRAC70
(PID.TID 0000.0001)  Fields:    TRAC71   TRAC72   TRAC73   TRAC74   TRAC75   TRAC76   TRAC77   TRAC78   TRAC79   TRAC80
(PID.TID 0000.0001)  Fields:    TRAC81   TRAC82   TRAC83   TRAC84   TRAC85   TRAC86   TRAC87   TRAC88   TRAC89   TRAC90
(PID.TID 0000.0001)  Fields:    TRAC91   TRAC92   TRAC93   TRAC94   TRAC95   TRAC96   TRAC97   TRAC98   TRAC99   TRAC0a
(PID.TID 0000.0001)  Fields:    TRAC0b   TRAC0c   TRAC0d   TRAC0e   TRAC0f   TRAC0g   TRAC0h   TRAC0i   TRAC0j   TRAC0k
(PID.TID 0000.0001)  Fields:    TRAC0l   TRAC0m   TRAC0n   TRAC0o   TRAC0p   TRAC0q   TRAC0r   TRAC0s   TRAC0t   TRAC0u
(PID.TID 0000.0001)  Fields:    TRAC0v   TRAC0w   TRAC0x   TRAC0y   TRAC0z   TRAC0A   TRAC0B   TRAC0C   TRAC0D   TRAC0E
(PID.TID 0000.0001)  Fields:    TRAC0F   TRAC0G   TRAC0H   TRAC0I   TRAC0J   TRAC0K   TRAC0L   TRAC0M   TRAC0N   TRAC0O
(PID.TID 0000.0001)  Fields:    TRAC0P   TRAC0Q   TRAC0R   TRAC0S   TRAC0T   TRAC0U   TRAC0V   TRAC0W   TRAC0X   TRAC0Y
(PID.TID 0000.0001)  Fields:    TRAC0Z   TRAC1a   TRAC1b   TRAC1c   TRAC1d   TRAC1e   TRAC1f   TRAC1g   TRAC1h   TRAC1i
(PID.TID 0000.0001)  Fields:    TRAC1j   TRAC1k   TRAC1l   TRAC1m   TRAC1n   TRAC1o   TRAC1p   TRAC1q   TRAC1r   TRAC1s
(PID.TID 0000.0001)  Fields:    TRAC1t   TRAC1u   TRAC1v   TRAC1w   TRAC1x   TRAC1y   TRAC1z   TRAC1A   TRAC1B   TRAC1C
(PID.TID 0000.0001)  Fields:    TRAC1D   TRAC1E   TRAC1F   TRAC1G   TRAC1H   TRAC1I   TRAC1J   TRAC1K   TRAC1L   TRAC1M
(PID.TID 0000.0001)  Fields:    TRAC1N   TRAC1O   TRAC1P   TRAC1Q   TRAC1R   TRAC1S   TRAC1T   TRAC1U   TRAC1V   TRAC1W
(PID.TID 0000.0001)  Fields:    TRAC1X   TRAC1Y   TRAC1Z   TRAC2a   TRAC2b   TRAC2c   TRAC2d
(PID.TID 0000.0001) -----------------------------------------------------
(PID.TID 0000.0001)  DIAGNOSTICS_READPARMS: statistics diags. summary:
(PID.TID 0000.0001) -----------------------------------------------------
(PID.TID 0000.0001) 
(PID.TID 0000.0001) SET_PARMS: done
(PID.TID 0000.0001) Enter INI_VERTICAL_GRID: setInterFDr=    T ; setCenterDr=    F
(PID.TID 0000.0001) %MON XC_max                       =   3.5859375000000000E+02
(PID.TID 0000.0001) %MON XC_min                       =   1.4062500000000000E+00
(PID.TID 0000.0001) %MON XC_mean                      =   1.8000000000000000E+02
(PID.TID 0000.0001) %MON XC_sd                        =   1.0391987692598804E+02
(PID.TID 0000.0001) %MON XG_max                       =   3.5718750000000000E+02
(PID.TID 0000.0001) %MON XG_min                       =   0.0000000000000000E+00
(PID.TID 0000.0001) %MON XG_mean                      =   1.7859375000000000E+02
(PID.TID 0000.0001) %MON XG_sd                        =   1.0391987692598804E+02
(PID.TID 0000.0001) %MON DXC_max                      =   3.1259246843154915E+05
(PID.TID 0000.0001) %MON DXC_min                      =   7.6737143816222988E+03
(PID.TID 0000.0001) %MON DXC_mean                     =   1.9908248704233844E+05
(PID.TID 0000.0001) %MON DXC_sd                       =   9.6190602240066684E+04
(PID.TID 0000.0001) %MON DXF_max                      =   3.1259246843154915E+05
(PID.TID 0000.0001) %MON DXF_min                      =   7.6737143816222988E+03
(PID.TID 0000.0001) %MON DXF_mean                     =   1.9908248704233844E+05
(PID.TID 0000.0001) %MON DXF_sd                       =   9.6190602240066684E+04
(PID.TID 0000.0001) %MON DXG_max                      =   3.1268664380260912E+05
(PID.TID 0000.0001) %MON DXG_min                      =   0.0000000000000000E+00
(PID.TID 0000.0001) %MON DXG_mean                     =   1.9902252711932667E+05
(PID.TID 0000.0001) %MON DXG_sd                       =   9.6314600686012433E+04
(PID.TID 0000.0001) %MON DXV_max                      =   3.1268664380260912E+05
(PID.TID 0000.0001) %MON DXV_min                      =   0.0000000000000000E+00
(PID.TID 0000.0001) %MON DXV_mean                     =   1.9902252711932667E+05
(PID.TID 0000.0001) %MON DXV_sd                       =   9.6314600686012433E+04
(PID.TID 0000.0001) %MON YC_max                       =   8.8593750000000000E+01
(PID.TID 0000.0001) %MON YC_min                       =  -8.8593750000000000E+01
(PID.TID 0000.0001) %MON YC_mean                      =   0.0000000000000000E+00
(PID.TID 0000.0001) %MON YC_sd                        =   5.1955180880375153E+01
(PID.TID 0000.0001) %MON YG_max                       =   8.7187500000000000E+01
(PID.TID 0000.0001) %MON YG_min                       =  -9.0000000000000000E+01
(PID.TID 0000.0001) %MON YG_mean                      =  -1.4062500000000000E+00
(PID.TID 0000.0001) %MON YG_sd                        =   5.1955180880375153E+01
(PID.TID 0000.0001) %MON DYC_max                      =   3.1268664380260912E+05
(PID.TID 0000.0001) %MON DYC_min                      =   3.1268664380260912E+05
(PID.TID 0000.0001) %MON DYC_mean                     =   3.1268664380262379E+05
(PID.TID 0000.0001) %MON DYC_sd                       =   1.4668330550193787E-08
(PID.TID 0000.0001) %MON DYF_max                      =   3.1268664380260912E+05
(PID.TID 0000.0001) %MON DYF_min                      =   3.1268664380260912E+05
(PID.TID 0000.0001) %MON DYF_mean                     =   3.1268664380262379E+05
(PID.TID 0000.0001) %MON DYF_sd                       =   1.4668330550193787E-08
(PID.TID 0000.0001) %MON DYG_max                      =   3.1268664380260912E+05
(PID.TID 0000.0001) %MON DYG_min                      =   3.1268664380260912E+05
(PID.TID 0000.0001) %MON DYG_mean                     =   3.1268664380262379E+05
(PID.TID 0000.0001) %MON DYG_sd                       =   1.4668330550193787E-08
(PID.TID 0000.0001) %MON DYU_max                      =   3.1268664380260912E+05
(PID.TID 0000.0001) %MON DYU_min                      =   3.1268664380260912E+05
(PID.TID 0000.0001) %MON DYU_mean                     =   3.1268664380262379E+05
(PID.TID 0000.0001) %MON DYU_sd                       =   1.4668330550193787E-08
(PID.TID 0000.0001) %MON RA_max                       =   9.7733676797555420E+10
(PID.TID 0000.0001) %MON RA_min                       =   2.3992270990190182E+09
(PID.TID 0000.0001) %MON RA_mean                      =   6.2244185031957382E+10
(PID.TID 0000.0001) %MON RA_sd                        =   3.0074496923945278E+10
(PID.TID 0000.0001) %MON RAW_max                      =   9.7733676797555420E+10
(PID.TID 0000.0001) %MON RAW_min                      =   2.3992270990190182E+09
(PID.TID 0000.0001) %MON RAW_mean                     =   6.2244185031957382E+10
(PID.TID 0000.0001) %MON RAW_sd                       =   3.0074496923945278E+10
(PID.TID 0000.0001) %MON RAS_max                      =   9.7763121221868164E+10
(PID.TID 0000.0001) %MON RAS_min                      =   0.0000000000000000E+00
(PID.TID 0000.0001) %MON RAS_mean                     =   6.2225438247156563E+10
(PID.TID 0000.0001) %MON RAS_sd                       =   3.0113265689232788E+10
(PID.TID 0000.0001) %MON RAZ_max                      =   9.7763121221868164E+10
(PID.TID 0000.0001) %MON RAZ_min                      =   0.0000000000000000E+00
(PID.TID 0000.0001) %MON RAZ_mean                     =   6.2225438247156563E+10
(PID.TID 0000.0001) %MON RAZ_sd                       =   3.0113265689232788E+10
(PID.TID 0000.0001) %MON AngleCS_max                  =   1.0000000000000000E+00
(PID.TID 0000.0001) %MON AngleCS_min                  =   1.0000000000000000E+00
(PID.TID 0000.0001) %MON AngleCS_mean                 =   1.0000000000000000E+00
(PID.TID 0000.0001) %MON AngleCS_sd                   =   0.0000000000000000E+00
(PID.TID 0000.0001) %MON AngleSN_max                  =   0.0000000000000000E+00
(PID.TID 0000.0001) %MON AngleSN_min                  =   0.0000000000000000E+00
(PID.TID 0000.0001) %MON AngleSN_mean                 =   0.0000000000000000E+00
(PID.TID 0000.0001) %MON AngleSN_sd                   =   0.0000000000000000E+00
(PID.TID 0000.0001)  MDS_READ_FIELD: opening global file: ../../monod_global_128x64x15/input/input_ocmip/depth_g77.bin
(PID.TID 0000.0001) // =======================================================
(PID.TID 0000.0001) // Field Model R_low (ini_masks_etc)
(PID.TID 0000.0001) // CMIN =         -5.200000000000000E+03
(PID.TID 0000.0001) // CMAX =         -5.000000000000000E+01
(PID.TID 0000.0001) // CINT =          1.907407407407407E+02
(PID.TID 0000.0001) // SYMBOLS (CMIN->CMAX): -abcdefghijklmnopqrstuvwxyz+
(PID.TID 0000.0001) //                  0.0: .
(PID.TID 0000.0001) // RANGE I (Lo:Hi:Step):(    -3:   132:     1)
(PID.TID 0000.0001) // RANGE J (Lo:Hi:Step):(    68:    -3:    -1)
(PID.TID 0000.0001) // RANGE K (Lo:Hi:Step):(   1:   1:   1)
(PID.TID 0000.0001) // =======================================================
(PID.TID 0000.0001) K =   1
(PID.TID 0000.0001) //                I=6       I=16      I=26      I=36      I=46      I=56      I=66      I=68      I=78      I=88      I=98      I=108     I=118     I=128
(PID.TID 0000.0001) // |--J--|321012345|789012345|789012345|789012345|789012345|789012345|789012345|781234567|901234567|901234567|901234567|901234567|901234567|901234567|9012
(PID.TID 0000.0001) //     68 ................................................................................................................................................
(PID.TID 0000.0001) //     67 ................................................................................................................................................
(PID.TID 0000.0001) //     66 ................................................................................................................................................
(PID.TID 0000.0001) //     65 ................................................................................................................................................
(PID.TID 0000.0001) //     64 ................................................................................................................................................
(PID.TID 0000.0001) //     63 ................................................................................................................................................
(PID.TID 0000.0001) //     62 ................................................................................................................................................
(PID.TID 0000.0001) //     61 +zvoovxyyy...+zzzzz+++++...............................................................................................................++zvoovxy
(PID.TID 0000.0001) //     60 +yvmmorw.....+++++zzzzz+.........................................................................................+....................zz+yvmmorw
(PID.TID 0000.0001) //     59 ojjjmmooty++zzzzzzzzzz+.........................................................................................+xwwwyz..............+ztojjjmmoo
(PID.TID 0000.0001) //     58 troommmorxzz+++zzzzz++.............................................................................................wttyz............+yvttroommmo
(PID.TID 0000.0001) //     57 vrmmmmmrv............................................................................................................xxz............xwvvvrmmmmmr
(PID.TID 0000.0001) //     56 vrjjrvyz..............................................................................................................zy........yyzxx..zvrjjrvyz
(PID.TID 0000.0001) //     55 ywrrvy..............................................................++......++.......................................+yvv.....vrrtxyyzyyywrrvy..
(PID.TID 0000.0001) //     54 xzz++............................................................vtt++++.vtt++++......................................yommv..vmmrvtoortwxzz++...
(PID.TID 0000.0001) //     53 y...++.................................................++++...wvtjggmrz+tjggmrz+++....xojmt...........................+tmjjmmmmrtoootwyxy...++..
(PID.TID 0000.0001) //     52 ....++................................................+zyyy...rrojjrmjjtojjrmjjt+.yvrjjjjjjr............................wtjjjjmrommmtvtt....++..
(PID.TID 0000.0001) //     51 .......................................................zvvx..ggjjmotvoomjmotvoomjdddddgggjjjrz..........................+yrjjjjjmmjjmmry........
(PID.TID 0000.0001) //     50 y+.....................................................+vvxyd--ggdd-----gdd-------ddddddgggjmox..........................+yrogggjmmggggty+......
(PID.TID 0000.0001) //     49 gj+....................................................+vvmd----g-------g--------------ddddgjomx..........................+wrgggjmojggddgj+.....
(PID.TID 0000.0001) //     48 vxx.....................................................vd------g-------g--------------ddgggjmmv.....................+xrrxwgdggjjoomjggjvxx.....
(PID.TID 0000.0001) //     47 v......................................................m------d-gd------gd-------------ddddggjjt...................ywgd--dggdddgrrojgddgv.......
(PID.TID 0000.0001) //     46 w.....................................................xd-----gd-jdgd----jdgd-----------dd---dddm..................rgddg-----dggmttvogdjjw.......
(PID.TID 0000.0001) //     45 m.....................................................m-----gd--gjjjjj--gjjjjj-------------ddddgt................tgddddg-ggggjoooojddgomm.......
(PID.TID 0000.0001) //     44 .................................................+.wttg----gj----jgggg---jgggg---dd-------ddddggjw..............zj--ggdd--dgjomjjoj-djmm........
(PID.TID 0000.0001) //     43 ................................................+zxmjrg----------dddggdd-dddggdd--d----ddddggddggmx............+wg--dd----djmmgddjd-djow........
(PID.TID 0000.0001) //     42 ...............................................+zyomjjrmd-----------djjj----djjjjdgd----dddddddgggj............wwd-------ddjmgd---d-gmx.........
(PID.TID 0000.0001) //     41 .........................tt.....................mgjjggrgddjddd----d---gg--d---ggtjjggd----ddddggggjm++.......vwwwv-------dgmjd------go..........
(PID.TID 0000.0001) //     40 .........................roo.................yytdd--gdmogggjjgd--jomd-gj-jomd-gjgdgovd-------ddggggjmm.......xxx.xvj-----dgmgd--ddddgt..........
(PID.TID 0000.0001) //     39 ........................xjjjr.....vrr.......vovtd---ddgogjgddggggmjjjmmmgmjjjmmmg--gmd--------dgggjjmmt......oortw.tttg-ddgmgd--ddgjjr..........
(PID.TID 0000.0001) //     38 .......................rmjggjt...rmmo+.....xrov.m--dddgogddddgggddgddddjddgddddjg----------dd-ddgggjmjmmov.....ytmmggttdddjjjdd---dtjr..........
(PID.TID 0000.0001) //     37 ....................zvvtjggggt..+jjjrx+....vmmy.t--ddgmmg--ddjmmg-d-d--dg-d-d--ddd-------dddddddggggjjmmjjjo...toovttwxjdddjjgd----ddo..........
(PID.TID 0000.0001) //     36 ......................tjmgdddrw.+jjjrxz....vty...--gmommmgdddmgor------gr------ggmgg--d---dddddddgggjmmjjggjm+.ww......rjdddgjgd----gm..........
(PID.TID 0000.0001) //     35 ......................dgjmgggmrv+jgjoxz....ww....--mjjorrommjgdjmj---d--mj---d--dgmgdddd-dddddddggggggjjjjjjjtx.........zyggddgjjgggmdjx........
(PID.TID 0000.0001) //     34 rrrrrtz..............rdddjmjgmrmgggjjw........zyxojjggmgggjmjjdgdjd--d--djd--d---djodddddddddddddgggggjjjjjmtrmr..........ymgggjmjggjddgrrrrrtz.
(PID.TID 0000.0001) //     33 dddddgr.............tddggggmjjogdddjjj.........zxxojgjmgggjoojdddmg--dd-dmg--dd--ddmjdgdddddgddddgggggjjjmmtrmmy...........+jgggjmjjdddddddddgr.
(PID.TID 0000.0001) //     32 gdddggo............rgddgddgjjjjddddgddm.........xx..+ttttrrrojggggo--dd-ggo--dd----dgddddddddddddddgggjjjjjtror..............oogdddgggjjgdddggo.
(PID.TID 0000.0001) //     31 jgddgdgy..........vgddgwrjgjmrg--ddgdddr........xxz.....y.xvtomjjdd---ddjdd---dd-jdddddddddddddddddggjjjjgggjjj................tg----dgmjgddgdgy
(PID.TID 0000.0001) //     30 jgdgd-dm..........vggjjovmgjmwd---dgddddmy...+xxxxy++....oo.vtjjgddg--ddgddg--dddjgddddddgjdddddddggjjjgggggggg................zd---dgjmjgdgd-dm
(PID.TID 0000.0001) //     29 jggd--dgy.........wjmmmjmyomjm---ddgdddddgjmooxxxx++++.+..vtvxrrgddjjjjggddjjjjggjmg-dgddgrgddgggggjmmjggggggddr...............yd---dgjmjggd--dg
(PID.TID 0000.0001) //     28 jjdd---gy.........wtr.gggymmjg--ddgj-djdggggggmxx+.....+ommromrvorrrtmmgorrrtmmgdgm--dgddgggggggggjjmjgggggggddd..............+gg---dgmmjjdd---g
(PID.TID 0000.0001) //     27 jgdd---g..........ww..gggymmjgdd-djj-dd---dgjjw+........vtmmmjjxmmotvrrgmmotvrrgddd-ggmtvroggggggjjmjjggjjggddddo.............ygd---dgjmjgdd---g
(PID.TID 0000.0001) //     26 jgdd---o..........rx..ddoromjgdd--gj-d-----jtw+..........ytrrotwrmrzvrjgrmrzvrjgdddgggojmromjgggjjjmjggggggddddjjg............yjd---dgjmjgdd---o
(PID.TID 0000.0001) //     25 jdd--dmo.........roz.rdomgjmmgddddgjd---dggox.............ztxxzyrmmmtv--rmmmtv----dgggggggmmjggggjjjjgggggggggmjddj...........rjgd--ddgmjdd--dmo
(PID.TID 0000.0001) //     24 gd---gogt.......zmjx.jdgdgggmjggddgjd--ddgmr..............zrrtmwoggjto--oggjto----ddddgggggjmjjjjjmjjgggjjjjjmmgdjj..........vjgd----djmgd---gog
(PID.TID 0000.0001) //     23 jgdddojdo.......wjgowj---dgjjmjggggjdddmdddr..............yjrtmrmjgjtmd-mjgjtmd------ddjmjgggggjjjmmmmmmmjjjjjjjggo........+omgddddddgjmjgdddojd
(PID.TID 0000.0001) //     22 jgddmgddj+.....yrddoojddgjggggmjgggooommgddd+.............yjrtororjmt-d-orjmt-d-------dddggdgggggjjmmmjjjjjjjgggggw........rjjmoojdddgjmjgddmgdd
(PID.TID 0000.0001) //     21 ggjjjdddgv.....mrddrogdjjgdddgjmjjmrgjmmgddgt....++.......rgrvovtrmom---trmom------------ddddgggggjmmjjjggjjjggggg+.......wjgggmmjdgggjjggjjjddd
(PID.TID 0000.0001) //     20 ggjgd---dgy.xjgjjddjjjjjgddddggjjjjgggdddddgjttjjjjt......gggrvtt.xrj--dt.xrj--d----------ddggjjggjjjjjjjjjjgggggj.......zjdddddgggggjjjggjgd---
(PID.TID 0000.0001) //     19 jjgd----gggjgjggddgjjjjgd-dddggjjjgggggddddddd------gv...jdddjtww..xjd-dw..xjd-dj--d-------dddddgggjjjgggjjjgggggj......zj-----ddggggjjjjjgd----
(PID.TID 0000.0001) //     18 jjgggdddjg--gjggdgjjjjjgd--dggjjjjjjjjggggddddd------dj..jddddjvy..tjjggy..tjjggdg-----------ddddggjjjggggjjjjgggv......r-------dddgjjjjjjgggddd
(PID.TID 0000.0001) //     17 gggjgdgdddddd--djjjjjjjgddddggjjjjjjjjjjggggdddddddddddvyjddddgv..wwwwrj..wwwwrjd-d-----------ddggjjjjjggggggjjjjz...++t--------ddddgjjjgggjgdgd
(PID.TID 0000.0001) //     16 jjgggdjgdddd--djjjjjjjjgddgjjjjjjjjjjjjjjjgggggdddddggdjrjddddj..vtrjgd-.vtrjgd----dddd-----ddddggjjjjjggdddggjjj....++r----------ddgjjjjjgggdjg
(PID.TID 0000.0001) //     15 jjjjjjjjgdddddgjggggggggdgjx.yjjjggggjjjjjjjjjgggggjjjgjjjdddgjjjjjjjd--jjjjjd------ddddddddddggjjjjjjggddddddggj....++xtjddggdddgjdgggjjjjjjjjj
(PID.TID 0000.0001) //     14 jjjjjjjjjjjjjgdddgjjjgggddgjjjjjjgdgggggggjjgggggggjjjjjggddjjjjjjjd----jjjd------dddddggjggggggjjjjjgggdddddddgjj..+jjjjjjjjjjjjgjjddggjjjjjjjj
(PID.TID 0000.0001) //     13 jjjjjjjgddgggg---gjggggddddjjjjjjgdddgggggggdddddddggjjjjgggjgjjjg------jg------ddddgjjjjjjjjjjjjjjjgggdgd----ddgjjjjjjjjjjjjjjjjggggddgjjjjjjjg
(PID.TID 0000.0001) //     12 gjggdd----dd--------------djjjjjjjdddddgdddddddddddddgjjjjjjjgd-----dddd----dddddddgjjjjjjjjjgggggdddddddddd---dddgjjjjgggjjjjjjjjvggggggjggdd--
(PID.TID 0000.0001) //     11 ------------------------dddddjjjrtjddddddddddddddddddgggjjjjjjjgddddddggddddddgggggjjjjjjgggdggddd--------------ddgjjjjjrrrvttrrjjjgggdd--------
(PID.TID 0000.0001) //     10 ----ggd--------d--ddgdddddgggggjjjjjjjjjjjjjjjjgggjjjjggggjjjjjjjjjjjjjjjjjjjjjjjjjjjjjgggddddd-----------dddddddggjrv..zvjjjggdddddd-------ggd-
(PID.TID 0000.0001) //      9 --ddjjggjjdddddjjggjtw..wrrrrrrrvvvw+........zxx++...zxvttrrjrjjjjjjjjjjjjjjjjjjjjgggggggggddddddddddddddddgdddggjt+...yxrjgdddddddgd-----ddjjgg
(PID.TID 0000.0001) //      8 jjjjjjjtvrjjjjv..............++.............................+trrjjjjjjggjjjjjjggggggdddddddddggjjjjggggddggjjjjjtz....+xxrjgggddddddddddjjjjjjjt
(PID.TID 0000.0001) //      7 .................................................................vttvtjg.vttvtjggggddgggddgggjjjjrttrrvxyzzyyyyy+......xxvtrjjggggggjjv+........
(PID.TID 0000.0001) //      6 ...............................................................+zyyyywjjzyyyywjjjjjgggjjrtwx+.........................+yxxyyyxwttvwy............
(PID.TID 0000.0001) //      5 ................................................................yyyyyyyyyyyyyyyyyyyyz.................................zzz+..+yy+................
(PID.TID 0000.0001) //      4 ................................................................................................................................................
(PID.TID 0000.0001) //      3 ................................................................................................................................................
(PID.TID 0000.0001) //      2 ................................................................................................................................................
(PID.TID 0000.0001) //      1 ................................................................................................................................................
(PID.TID 0000.0001) //      0 ................................................................................................................................................
(PID.TID 0000.0001) //     -1 ................................................................................................................................................
(PID.TID 0000.0001) //     -2 ................................................................................................................................................
(PID.TID 0000.0001) //     -3 ................................................................................................................................................
(PID.TID 0000.0001) // =======================================================
(PID.TID 0000.0001) // END OF FIELD                                          =
(PID.TID 0000.0001) // =======================================================
(PID.TID 0000.0001) 
(PID.TID 0000.0001) // =======================================================
(PID.TID 0000.0001) // Field Model Ro_surf (ini_masks_etc)
(PID.TID 0000.0001) // CMIN =          1.000000000000000E+32
(PID.TID 0000.0001) // CMAX =         -1.000000000000000E+32
(PID.TID 0000.0001) // CINT =          0.000000000000000E+00
(PID.TID 0000.0001) // SYMBOLS (CMIN->CMAX): -abcdefghijklmnopqrstuvwxyz+
(PID.TID 0000.0001) //                  0.0: .
(PID.TID 0000.0001) // RANGE I (Lo:Hi:Step):(    -3:   132:     1)
(PID.TID 0000.0001) // RANGE J (Lo:Hi:Step):(    68:    -3:    -1)
(PID.TID 0000.0001) // RANGE K (Lo:Hi:Step):(   1:   1:   1)
(PID.TID 0000.0001) // =======================================================
(PID.TID 0000.0001) // =======================================================
(PID.TID 0000.0001) // END OF FIELD                                          =
(PID.TID 0000.0001) // =======================================================
(PID.TID 0000.0001) 
(PID.TID 0000.0001) // =======================================================
(PID.TID 0000.0001) // Field hFacC at iteration          0
(PID.TID 0000.0001) // CMIN =          1.000000000000000E+00
(PID.TID 0000.0001) // CMAX =          1.000000000000000E+00
(PID.TID 0000.0001) // CINT =          0.000000000000000E+00
(PID.TID 0000.0001) // SYMBOLS (CMIN->CMAX): -abcdefghijklmnopqrstuvwxyz+
(PID.TID 0000.0001) //                  0.0: .
(PID.TID 0000.0001) // RANGE I (Lo:Hi:Step):(    -3:   132:     1)
(PID.TID 0000.0001) // RANGE J (Lo:Hi:Step):(    68:    -3:    -1)
(PID.TID 0000.0001) // RANGE K (Lo:Hi:Step):(   1:   1:   1)
(PID.TID 0000.0001) // =======================================================
(PID.TID 0000.0001) // =======================================================
(PID.TID 0000.0001) // END OF FIELD                                          =
(PID.TID 0000.0001) // =======================================================
(PID.TID 0000.0001) 
(PID.TID 0000.0001) // =======================================================
(PID.TID 0000.0001) // Field hFacW at iteration          0
(PID.TID 0000.0001) // CMIN =          1.000000000000000E+00
(PID.TID 0000.0001) // CMAX =          1.000000000000000E+00
(PID.TID 0000.0001) // CINT =          0.000000000000000E+00
(PID.TID 0000.0001) // SYMBOLS (CMIN->CMAX): -abcdefghijklmnopqrstuvwxyz+
(PID.TID 0000.0001) //                  0.0: .
(PID.TID 0000.0001) // RANGE I (Lo:Hi:Step):(    -3:   132:     1)
(PID.TID 0000.0001) // RANGE J (Lo:Hi:Step):(    68:    -3:    -1)
(PID.TID 0000.0001) // RANGE K (Lo:Hi:Step):(   1:   1:   1)
(PID.TID 0000.0001) // =======================================================
(PID.TID 0000.0001) // =======================================================
(PID.TID 0000.0001) // END OF FIELD                                          =
(PID.TID 0000.0001) // =======================================================
(PID.TID 0000.0001) 
(PID.TID 0000.0001) // =======================================================
(PID.TID 0000.0001) // Field hFacS at iteration          0
(PID.TID 0000.0001) // CMIN =          1.000000000000000E+00
(PID.TID 0000.0001) // CMAX =          1.000000000000000E+00
(PID.TID 0000.0001) // CINT =          0.000000000000000E+00
[...]
 Computing Diagnostic #   1940  TRAC0S       Counter:       1   Parms: SMR     MR      
 Computing Diagnostic #   1952  TRAC0T       Counter:       1   Parms: SMR     MR      
 Computing Diagnostic #   1964  TRAC0U       Counter:       1   Parms: SMR     MR      
 Computing Diagnostic #   1976  TRAC0V       Counter:       1   Parms: SMR     MR      
 Computing Diagnostic #   1988  TRAC0W       Counter:       1   Parms: SMR     MR      
 Computing Diagnostic #   2000  TRAC0X       Counter:       1   Parms: SMR     MR      
 Computing Diagnostic #   2012  TRAC0Y       Counter:       1   Parms: SMR     MR      
 Computing Diagnostic #   2024  TRAC0Z       Counter:       1   Parms: SMR     MR      
 Computing Diagnostic #   2036  TRAC1a       Counter:       1   Parms: SMR     MR      
 Computing Diagnostic #   2048  TRAC1b       Counter:       1   Parms: SMR     MR      
 Computing Diagnostic #   2060  TRAC1c       Counter:       1   Parms: SMR     MR      
 Computing Diagnostic #   2072  TRAC1d       Counter:       1   Parms: SMR     MR      
 Computing Diagnostic #   2084  TRAC1e       Counter:       1   Parms: SMR     MR      
 Computing Diagnostic #   2096  TRAC1f       Counter:       1   Parms: SMR     MR      
 Computing Diagnostic #   2108  TRAC1g       Counter:       1   Parms: SMR     MR      
 Computing Diagnostic #   2120  TRAC1h       Counter:       1   Parms: SMR     MR      
 Computing Diagnostic #   2132  TRAC1i       Counter:       1   Parms: SMR     MR      
 Computing Diagnostic #   2144  TRAC1j       Counter:       1   Parms: SMR     MR      
 Computing Diagnostic #   2156  TRAC1k       Counter:       1   Parms: SMR     MR      
 Computing Diagnostic #   2168  TRAC1l       Counter:       1   Parms: SMR     MR      
 Computing Diagnostic #   2180  TRAC1m       Counter:       1   Parms: SMR     MR      
 Computing Diagnostic #   2192  TRAC1n       Counter:       1   Parms: SMR     MR      
 Computing Diagnostic #   2204  TRAC1o       Counter:       1   Parms: SMR     MR      
 Computing Diagnostic #   2216  TRAC1p       Counter:       1   Parms: SMR     MR      
 Computing Diagnostic #   2228  TRAC1q       Counter:       1   Parms: SMR     MR      
 Computing Diagnostic #   2240  TRAC1r       Counter:       1   Parms: SMR     MR      
 Computing Diagnostic #   2252  TRAC1s       Counter:       1   Parms: SMR     MR      
 Computing Diagnostic #   2264  TRAC1t       Counter:       1   Parms: SMR     MR      
 Computing Diagnostic #   2276  TRAC1u       Counter:       1   Parms: SMR     MR      
 Computing Diagnostic #   2288  TRAC1v       Counter:       1   Parms: SMR     MR      
 Computing Diagnostic #   2300  TRAC1w       Counter:       1   Parms: SMR     MR      
 Computing Diagnostic #   2312  TRAC1x       Counter:       1   Parms: SMR     MR      
 Computing Diagnostic #   2324  TRAC1y       Counter:       1   Parms: SMR     MR      
 Computing Diagnostic #   2336  TRAC1z       Counter:       1   Parms: SMR     MR      
 Computing Diagnostic #   2348  TRAC1A       Counter:       1   Parms: SMR     MR      
 Computing Diagnostic #   2360  TRAC1B       Counter:       1   Parms: SMR     MR      
 Computing Diagnostic #   2372  TRAC1C       Counter:       1   Parms: SMR     MR      
 Computing Diagnostic #   2384  TRAC1D       Counter:       1   Parms: SMR     MR      
 Computing Diagnostic #   2396  TRAC1E       Counter:       1   Parms: SMR     MR      
 Computing Diagnostic #   2408  TRAC1F       Counter:       1   Parms: SMR     MR      
 Computing Diagnostic #   2420  TRAC1G       Counter:       1   Parms: SMR     MR      
 Computing Diagnostic #   2432  TRAC1H       Counter:       1   Parms: SMR     MR      
 Computing Diagnostic #   2444  TRAC1I       Counter:       1   Parms: SMR     MR      
 Computing Diagnostic #   2456  TRAC1J       Counter:       1   Parms: SMR     MR      
 Computing Diagnostic #   2468  TRAC1K       Counter:       1   Parms: SMR     MR      
 Computing Diagnostic #   2480  TRAC1L       Counter:       1   Parms: SMR     MR      
 Computing Diagnostic #   2492  TRAC1M       Counter:       1   Parms: SMR     MR      
 Computing Diagnostic #   2504  TRAC1N       Counter:       1   Parms: SMR     MR      
 Computing Diagnostic #   2516  TRAC1O       Counter:       1   Parms: SMR     MR      
 Computing Diagnostic #   2528  TRAC1P       Counter:       1   Parms: SMR     MR      
 Computing Diagnostic #   2540  TRAC1Q       Counter:       1   Parms: SMR     MR      
 Computing Diagnostic #   2552  TRAC1R       Counter:       1   Parms: SMR     MR      
 Computing Diagnostic #   2564  TRAC1S       Counter:       1   Parms: SMR     MR      
 Computing Diagnostic #   2576  TRAC1T       Counter:       1   Parms: SMR     MR      
 Computing Diagnostic #   2588  TRAC1U       Counter:       1   Parms: SMR     MR      
 Computing Diagnostic #   2600  TRAC1V       Counter:       1   Parms: SMR     MR      
 Computing Diagnostic #   2612  TRAC1W       Counter:       1   Parms: SMR     MR      
 Computing Diagnostic #   2624  TRAC1X       Counter:       1   Parms: SMR     MR      
 Computing Diagnostic #   2636  TRAC1Y       Counter:       1   Parms: SMR     MR      
 Computing Diagnostic #   2648  TRAC1Z       Counter:       1   Parms: SMR     MR      
 Computing Diagnostic #   2660  TRAC2a       Counter:       1   Parms: SMR     MR      
 Computing Diagnostic #   2672  TRAC2b       Counter:       1   Parms: SMR     MR      
 Computing Diagnostic #   2684  TRAC2c       Counter:       1   Parms: SMR     MR      
 Computing Diagnostic #   2696  TRAC2d       Counter:       1   Parms: SMR     MR      
(PID.TID 0000.0001) %CHECKPOINT   5644804 ckptA
(PID.TID 0000.0001)   Seconds in section "ALL                    [THE_MODEL_MAIN]":
(PID.TID 0000.0001)           User time:   261.80000000000001
(PID.TID 0000.0001)         System time:   72.760000000000005
(PID.TID 0000.0001)     Wall clock time:   489.38886189460754
(PID.TID 0000.0001)          No. starts:           1
(PID.TID 0000.0001)           No. stops:           1
(PID.TID 0000.0001)   Seconds in section "INITIALISE_FIXED       [THE_MODEL_MAIN]":
(PID.TID 0000.0001)           User time:   2.0600000000000001
(PID.TID 0000.0001)         System time:   8.0000000000000002E-002
(PID.TID 0000.0001)     Wall clock time:   2.3408801555633545
(PID.TID 0000.0001)          No. starts:           1
(PID.TID 0000.0001)           No. stops:           1
(PID.TID 0000.0001)   Seconds in section "THE_MAIN_LOOP          [THE_MODEL_MAIN]":
(PID.TID 0000.0001)           User time:   259.73000000000002
(PID.TID 0000.0001)         System time:   72.680000000000007
(PID.TID 0000.0001)     Wall clock time:   487.02901792526245
(PID.TID 0000.0001)          No. starts:           1
(PID.TID 0000.0001)           No. stops:           1
(PID.TID 0000.0001)   Seconds in section "INITIALISE_VARIA    [THE_MAIN_LOOP]":
(PID.TID 0000.0001)           User time:   25.880000000000003
(PID.TID 0000.0001)         System time:   38.859999999999999
(PID.TID 0000.0001)     Wall clock time:   135.40107583999634
(PID.TID 0000.0001)          No. starts:           1
(PID.TID 0000.0001)           No. stops:           1
(PID.TID 0000.0001)   Seconds in section "MAIN LOOP           [THE_MAIN_LOOP]":
(PID.TID 0000.0001)           User time:   233.85000000000002
(PID.TID 0000.0001)         System time:   33.820000000000007
(PID.TID 0000.0001)     Wall clock time:   351.62790012359619
(PID.TID 0000.0001)          No. starts:           1
(PID.TID 0000.0001)           No. stops:           1
(PID.TID 0000.0001)   Seconds in section "FORWARD_STEP        [THE_MAIN_LOOP]":
(PID.TID 0000.0001)           User time:   233.85000000000002
(PID.TID 0000.0001)         System time:   33.820000000000007
(PID.TID 0000.0001)     Wall clock time:   351.62780714035034
(PID.TID 0000.0001)          No. starts:           4
(PID.TID 0000.0001)           No. stops:           4
(PID.TID 0000.0001)   Seconds in section "DO_STATEVARS_DIAGS  [FORWARD_STEP]":
(PID.TID 0000.0001)           User time:   1.3300000000000125
(PID.TID 0000.0001)         System time:   0.0000000000000000
(PID.TID 0000.0001)     Wall clock time:   1.2213416099548340
(PID.TID 0000.0001)          No. starts:           8
(PID.TID 0000.0001)           No. stops:           8
(PID.TID 0000.0001)   Seconds in section "LOAD_FIELDS_DRIVER  [FORWARD_STEP]":
(PID.TID 0000.0001)           User time:   9.9999999999994316E-002
(PID.TID 0000.0001)         System time:   0.0000000000000000
(PID.TID 0000.0001)     Wall clock time:  0.13901090621948242
(PID.TID 0000.0001)          No. starts:           4
(PID.TID 0000.0001)           No. stops:           4
(PID.TID 0000.0001)   Seconds in section "EXF_GETFORCING     [LOAD_FLDS_DRIVER]":
(PID.TID 0000.0001)           User time:   7.9999999999984084E-002
(PID.TID 0000.0001)         System time:   0.0000000000000000
(PID.TID 0000.0001)     Wall clock time:   6.9563865661621094E-002
(PID.TID 0000.0001)          No. starts:           4
(PID.TID 0000.0001)           No. stops:           4
(PID.TID 0000.0001)   Seconds in section "EXTERNAL_FLDS_LOAD [LOAD_FLDS_DRIVER]":
(PID.TID 0000.0001)           User time:   0.0000000000000000
(PID.TID 0000.0001)         System time:   0.0000000000000000
(PID.TID 0000.0001)     Wall clock time:   4.6103000640869141E-002
(PID.TID 0000.0001)          No. starts:           4
(PID.TID 0000.0001)           No. stops:           4
(PID.TID 0000.0001)   Seconds in section "DO_ATMOSPHERIC_PHYS [FORWARD_STEP]":
(PID.TID 0000.0001)           User time:   0.0000000000000000
(PID.TID 0000.0001)         System time:   0.0000000000000000
(PID.TID 0000.0001)     Wall clock time:   4.7922134399414062E-005
(PID.TID 0000.0001)          No. starts:           4
(PID.TID 0000.0001)           No. stops:           4
(PID.TID 0000.0001)   Seconds in section "DO_OCEANIC_PHYS     [FORWARD_STEP]":
(PID.TID 0000.0001)           User time:  0.34999999999999432
(PID.TID 0000.0001)         System time:   0.0000000000000000
(PID.TID 0000.0001)     Wall clock time:  0.32825303077697754
(PID.TID 0000.0001)          No. starts:           4
(PID.TID 0000.0001)           No. stops:           4
(PID.TID 0000.0001)   Seconds in section "GCHEM_CALC_TENDENCY [FORWARD_STEP]":
(PID.TID 0000.0001)           User time:   0.0000000000000000
(PID.TID 0000.0001)         System time:   0.0000000000000000
(PID.TID 0000.0001)     Wall clock time:   4.4822692871093750E-005
(PID.TID 0000.0001)          No. starts:           4
(PID.TID 0000.0001)           No. stops:           4
(PID.TID 0000.0001)   Seconds in section "THERMODYNAMICS      [FORWARD_STEP]":
(PID.TID 0000.0001)           User time:   102.47999999999999
(PID.TID 0000.0001)         System time:   0.0000000000000000
(PID.TID 0000.0001)     Wall clock time:   95.018428087234497
(PID.TID 0000.0001)          No. starts:           4
(PID.TID 0000.0001)           No. stops:           4
(PID.TID 0000.0001)   Seconds in section "DYNAMICS            [FORWARD_STEP]":
(PID.TID 0000.0001)           User time:   1.3100000000000023
(PID.TID 0000.0001)         System time:   0.0000000000000000
(PID.TID 0000.0001)     Wall clock time:   1.2325437068939209
(PID.TID 0000.0001)          No. starts:           4
(PID.TID 0000.0001)           No. stops:           4
(PID.TID 0000.0001)   Seconds in section "SOLVE_FOR_PRESSURE  [FORWARD_STEP]":
(PID.TID 0000.0001)           User time:  0.12000000000000455
(PID.TID 0000.0001)         System time:   0.0000000000000000
(PID.TID 0000.0001)     Wall clock time:  0.12723064422607422
(PID.TID 0000.0001)          No. starts:           4
(PID.TID 0000.0001)           No. stops:           4
(PID.TID 0000.0001)   Seconds in section "MOM_CORRECTION_STEP [FORWARD_STEP]":
(PID.TID 0000.0001)           User time:   2.9999999999972715E-002
(PID.TID 0000.0001)         System time:   0.0000000000000000
(PID.TID 0000.0001)     Wall clock time:   2.0668029785156250E-002
(PID.TID 0000.0001)          No. starts:           4
(PID.TID 0000.0001)           No. stops:           4
(PID.TID 0000.0001)   Seconds in section "INTEGR_CONTINUITY   [FORWARD_STEP]":
(PID.TID 0000.0001)           User time:   4.0000000000020464E-002
(PID.TID 0000.0001)         System time:   0.0000000000000000
(PID.TID 0000.0001)     Wall clock time:   3.3942937850952148E-002
(PID.TID 0000.0001)          No. starts:           4
(PID.TID 0000.0001)           No. stops:           4
(PID.TID 0000.0001)   Seconds in section "TRC_CORRECTION_STEP [FORWARD_STEP]":
(PID.TID 0000.0001)           User time:   1.2099999999999795
(PID.TID 0000.0001)         System time:   0.0000000000000000
(PID.TID 0000.0001)     Wall clock time:   1.1504349708557129
(PID.TID 0000.0001)          No. starts:           4
(PID.TID 0000.0001)           No. stops:           4
(PID.TID 0000.0001)   Seconds in section "GCHEM_FORCING_SEP  [FORWARD_STEP]":
(PID.TID 0000.0001)           User time:   60.420000000000044
(PID.TID 0000.0001)         System time:   0.0000000000000000
(PID.TID 0000.0001)     Wall clock time:   57.291998863220215
(PID.TID 0000.0001)          No. starts:           4
(PID.TID 0000.0001)           No. stops:           4
(PID.TID 0000.0001)   Seconds in section "DARWIN_FORCING [GCHEM_FORCING_SEP]":
(PID.TID 0000.0001)           User time:   45.019999999999953
(PID.TID 0000.0001)         System time:   0.0000000000000000
(PID.TID 0000.0001)     Wall clock time:   42.678667306900024
(PID.TID 0000.0001)          No. starts:          16
(PID.TID 0000.0001)           No. stops:          16
(PID.TID 0000.0001)   Seconds in section "DARWIN_LIGHT [DARWIN_FORCING]":
(PID.TID 0000.0001)           User time:  0.38000000000002387
(PID.TID 0000.0001)         System time:   0.0000000000000000
(PID.TID 0000.0001)     Wall clock time:  0.38702797889709473
(PID.TID 0000.0001)          No. starts:          16
(PID.TID 0000.0001)           No. stops:          16
(PID.TID 0000.0001)   Seconds in section "DARWIN_FE_CHEM1 [DARWIN_FORCING]":
(PID.TID 0000.0001)           User time:  0.14000000000001478
(PID.TID 0000.0001)         System time:   0.0000000000000000
(PID.TID 0000.0001)     Wall clock time:  0.11321210861206055
(PID.TID 0000.0001)          No. starts:          16
(PID.TID 0000.0001)           No. stops:          16
(PID.TID 0000.0001)   Seconds in section "DARWIN_MODEL [DARWIN_FORCING]":
(PID.TID 0000.0001)           User time:   9.6999999999998749
(PID.TID 0000.0001)         System time:   0.0000000000000000
(PID.TID 0000.0001)     Wall clock time:   9.1921460628509521
(PID.TID 0000.0001)          No. starts:          16
(PID.TID 0000.0001)           No. stops:          16
(PID.TID 0000.0001)   Seconds in section "DARWIN_GRAZING [DARWIN_FORCING]":
(PID.TID 0000.0001)           User time:   28.030000000000172
(PID.TID 0000.0001)         System time:   0.0000000000000000
(PID.TID 0000.0001)     Wall clock time:   26.543575763702393
(PID.TID 0000.0001)          No. starts:          16
(PID.TID 0000.0001)           No. stops:          16
(PID.TID 0000.0001)   Seconds in section "DARWIN_SINKING [DARWIN_FORCING]":
(PID.TID 0000.0001)           User time:   6.7599999999999625
(PID.TID 0000.0001)         System time:   0.0000000000000000
(PID.TID 0000.0001)     Wall clock time:   6.4238884449005127
(PID.TID 0000.0001)          No. starts:          16
(PID.TID 0000.0001)           No. stops:          16
(PID.TID 0000.0001)   Seconds in section "DIAGS_FILL [DARWIN_FORCING]":
(PID.TID 0000.0001)           User time:   0.0000000000000000
(PID.TID 0000.0001)         System time:   0.0000000000000000
(PID.TID 0000.0001)     Wall clock time:   5.7244300842285156E-004
(PID.TID 0000.0001)          No. starts:          16
(PID.TID 0000.0001)           No. stops:          16
(PID.TID 0000.0001)   Seconds in section "DARWIN_FE_CHEM1 [GCHEM_FORCING_SEP]":
(PID.TID 0000.0001)           User time:   9.9999999999965894E-002
(PID.TID 0000.0001)         System time:   0.0000000000000000
(PID.TID 0000.0001)     Wall clock time:  0.10892486572265625
(PID.TID 0000.0001)          No. starts:          16
(PID.TID 0000.0001)           No. stops:          16
(PID.TID 0000.0001)   Seconds in section "BLOCKING_EXCHANGES  [FORWARD_STEP]":
(PID.TID 0000.0001)           User time:  0.70999999999997954
(PID.TID 0000.0001)         System time:   0.0000000000000000
(PID.TID 0000.0001)     Wall clock time:  0.66222500801086426
(PID.TID 0000.0001)          No. starts:           4
(PID.TID 0000.0001)           No. stops:           4
(PID.TID 0000.0001)   Seconds in section "DO_STATEVARS_TAVE   [FORWARD_STEP]":
(PID.TID 0000.0001)           User time:   1.5800000000000125
(PID.TID 0000.0001)         System time:   0.0000000000000000
(PID.TID 0000.0001)     Wall clock time:   1.5141332149505615
(PID.TID 0000.0001)          No. starts:           4
(PID.TID 0000.0001)           No. stops:           4
(PID.TID 0000.0001)   Seconds in section "MONITOR             [FORWARD_STEP]":
(PID.TID 0000.0001)           User time:  0.28000000000000114
(PID.TID 0000.0001)         System time:   0.0000000000000000
(PID.TID 0000.0001)     Wall clock time:  0.26794481277465820
(PID.TID 0000.0001)          No. starts:           4
(PID.TID 0000.0001)           No. stops:           4
(PID.TID 0000.0001)   Seconds in section "DO_THE_MODEL_IO     [FORWARD_STEP]":
(PID.TID 0000.0001)           User time:   61.239999999999952
(PID.TID 0000.0001)         System time:   33.409999999999997
(PID.TID 0000.0001)     Wall clock time:   184.39940786361694
(PID.TID 0000.0001)          No. starts:           4
(PID.TID 0000.0001)           No. stops:           4
(PID.TID 0000.0001)   Seconds in section "DO_WRITE_PICKUP     [FORWARD_STEP]":
(PID.TID 0000.0001)           User time:   2.6500000000000341
(PID.TID 0000.0001)         System time:  0.41000000000001080
(PID.TID 0000.0001)     Wall clock time:   8.2192039489746094
(PID.TID 0000.0001)          No. starts:           4
(PID.TID 0000.0001)           No. stops:           4
(PID.TID 0000.0001) // ======================================================
(PID.TID 0000.0001) // Tile <-> Tile communication statistics
(PID.TID 0000.0001) // ======================================================
(PID.TID 0000.0001) // o Tile number: 000001
(PID.TID 0000.0001) //         No. X exchanges =              0
(PID.TID 0000.0001) //            Max. X spins =              0
(PID.TID 0000.0001) //            Min. X spins =     1000000000
(PID.TID 0000.0001) //          Total. X spins =              0
(PID.TID 0000.0001) //            Avg. X spins =       0.00E+00
(PID.TID 0000.0001) //         No. Y exchanges =              0
(PID.TID 0000.0001) //            Max. Y spins =              0
(PID.TID 0000.0001) //            Min. Y spins =     1000000000
(PID.TID 0000.0001) //          Total. Y spins =              0
(PID.TID 0000.0001) //            Avg. Y spins =       0.00E+00
(PID.TID 0000.0001) // o Tile number: 000002
(PID.TID 0000.0001) //         No. X exchanges =              0
(PID.TID 0000.0001) //            Max. X spins =              0
(PID.TID 0000.0001) //            Min. X spins =     1000000000
(PID.TID 0000.0001) //          Total. X spins =              0
(PID.TID 0000.0001) //            Avg. X spins =       0.00E+00
(PID.TID 0000.0001) //         No. Y exchanges =              0
(PID.TID 0000.0001) //            Max. Y spins =              0
(PID.TID 0000.0001) //            Min. Y spins =     1000000000
(PID.TID 0000.0001) //          Total. Y spins =              0
(PID.TID 0000.0001) //            Avg. Y spins =       0.00E+00
(PID.TID 0000.0001) // o Thread number: 000001
(PID.TID 0000.0001) //            No. barriers =          17368
(PID.TID 0000.0001) //      Max. barrier spins =              1
(PID.TID 0000.0001) //      Min. barrier spins =              1
(PID.TID 0000.0001) //     Total barrier spins =          17368
(PID.TID 0000.0001) //      Avg. barrier spins =       1.00E+00
PROGRAM MAIN: Execution ended Normally
