(PID.TID 0000.0001) %MON XC_max                       =   3.3550000000000000E+02
(PID.TID 0000.0001) %MON XC_min                       =   3.3550000000000000E+02
(PID.TID 0000.0001) %MON XC_mean                      =   3.3550000000000000E+02
(PID.TID 0000.0001) %MON XC_sd                        =   0.0000000000000000E+00
(PID.TID 0000.0001) %MON XG_max                       =   3.3500000000000000E+02
(PID.TID 0000.0001) %MON XG_min                       =   3.3500000000000000E+02
(PID.TID 0000.0001) %MON XG_mean                      =   3.3500000000000000E+02
(PID.TID 0000.0001) %MON XG_sd                        =   0.0000000000000000E+00
(PID.TID 0000.0001) %MON DXC_max                      =   1.0603184087719869E+05
(PID.TID 0000.0001) %MON DXC_min                      =   1.0603184087719869E+05
(PID.TID 0000.0001) %MON DXC_mean                     =   1.0603184087719869E+05
(PID.TID 0000.0001) %MON DXC_sd                       =   0.0000000000000000E+00
(PID.TID 0000.0001) %MON DXF_max                      =   1.0603184087719869E+05
(PID.TID 0000.0001) %MON DXF_min                      =   1.0603184087719869E+05
(PID.TID 0000.0001) %MON DXF_mean                     =   1.0603184087719869E+05
(PID.TID 0000.0001) %MON DXF_sd                       =   0.0000000000000000E+00
(PID.TID 0000.0001) %MON DXG_max                      =   1.0573606049668728E+05
(PID.TID 0000.0001) %MON DXG_min                      =   1.0573606049668728E+05
(PID.TID 0000.0001) %MON DXG_mean                     =   1.0573606049668728E+05
(PID.TID 0000.0001) %MON DXG_sd                       =   0.0000000000000000E+00
(PID.TID 0000.0001) %MON DXV_max                      =   1.0573606049668728E+05
(PID.TID 0000.0001) %MON DXV_min                      =   1.0573606049668728E+05
(PID.TID 0000.0001) %MON DXV_mean                     =   1.0573606049668728E+05
(PID.TID 0000.0001) %MON DXV_sd                       =   0.0000000000000000E+00
(PID.TID 0000.0001) %MON YC_max                       =  -1.7500000000000000E+01
(PID.TID 0000.0001) %MON YC_min                       =  -1.7500000000000000E+01
(PID.TID 0000.0001) %MON YC_mean                      =  -1.7500000000000000E+01
(PID.TID 0000.0001) %MON YC_sd                        =   0.0000000000000000E+00
(PID.TID 0000.0001) %MON YG_max                       =  -1.8000000000000000E+01
(PID.TID 0000.0001) %MON YG_min                       =  -1.8000000000000000E+01
(PID.TID 0000.0001) %MON YG_mean                      =  -1.8000000000000000E+01
(PID.TID 0000.0001) %MON YG_sd                        =   0.0000000000000000E+00
(PID.TID 0000.0001) %MON DYC_max                      =   1.1117747335203880E+05
(PID.TID 0000.0001) %MON DYC_min                      =   1.1117747335203880E+05
(PID.TID 0000.0001) %MON DYC_mean                     =   1.1117747335203880E+05
(PID.TID 0000.0001) %MON DYC_sd                       =   0.0000000000000000E+00
(PID.TID 0000.0001) %MON DYF_max                      =   1.1117747335203880E+05
(PID.TID 0000.0001) %MON DYF_min                      =   1.1117747335203880E+05
(PID.TID 0000.0001) %MON DYF_mean                     =   1.1117747335203880E+05
(PID.TID 0000.0001) %MON DYF_sd                       =   0.0000000000000000E+00
(PID.TID 0000.0001) %MON DYG_max                      =   1.1117747335203880E+05
(PID.TID 0000.0001) %MON DYG_min                      =   1.1117747335203880E+05
(PID.TID 0000.0001) %MON DYG_mean                     =   1.1117747335203880E+05
(PID.TID 0000.0001) %MON DYG_sd                       =   0.0000000000000000E+00
(PID.TID 0000.0001) %MON DYU_max                      =   1.1117747335203880E+05
(PID.TID 0000.0001) %MON DYU_min                      =   1.1117747335203880E+05
(PID.TID 0000.0001) %MON DYU_mean                     =   1.1117747335203880E+05
(PID.TID 0000.0001) %MON DYU_sd                       =   0.0000000000000000E+00
(PID.TID 0000.0001) %MON RA_max                       =   1.1788202541769560E+10
(PID.TID 0000.0001) %MON RA_min                       =   1.1788202541769560E+10
(PID.TID 0000.0001) %MON RA_mean                      =   1.1788202541769560E+10
(PID.TID 0000.0001) %MON RA_sd                        =   0.0000000000000000E+00
(PID.TID 0000.0001) %MON RAW_max                      =   1.1788202541769560E+10
(PID.TID 0000.0001) %MON RAW_min                      =   1.1788202541769560E+10
(PID.TID 0000.0001) %MON RAW_mean                     =   1.1788202541769560E+10
(PID.TID 0000.0001) %MON RAW_sd                       =   0.0000000000000000E+00
(PID.TID 0000.0001) %MON RAS_max                      =   1.1755318843773766E+10
(PID.TID 0000.0001) %MON RAS_min                      =   1.1755318843773766E+10
(PID.TID 0000.0001) %MON RAS_mean                     =   1.1755318843773766E+10
(PID.TID 0000.0001) %MON RAS_sd                       =   0.0000000000000000E+00
(PID.TID 0000.0001) %MON RAZ_max                      =   1.1755318843773766E+10
(PID.TID 0000.0001) %MON RAZ_min                      =   1.1755318843773766E+10
(PID.TID 0000.0001) %MON RAZ_mean                     =   1.1755318843773766E+10
(PID.TID 0000.0001) %MON RAZ_sd                       =   0.0000000000000000E+00
(PID.TID 0000.0001) %MON AngleCS_max                  =   1.0000000000000000E+00
(PID.TID 0000.0001) %MON AngleCS_min                  =   1.0000000000000000E+00
(PID.TID 0000.0001) %MON AngleCS_mean                 =   1.0000000000000000E+00
(PID.TID 0000.0001) %MON AngleCS_sd                   =   0.0000000000000000E+00
(PID.TID 0000.0001) %MON AngleSN_max                  =   0.0000000000000000E+00
(PID.TID 0000.0001) %MON AngleSN_min                  =   0.0000000000000000E+00
(PID.TID 0000.0001) %MON AngleSN_mean                 =   0.0000000000000000E+00
(PID.TID 0000.0001) %MON AngleSN_sd                   =   0.0000000000000000E+00
(PID.TID 0000.0001) %MON fCori_max                    =  -4.3855676645210050E-05
(PID.TID 0000.0001) %MON fCori_min                    =  -4.3855676645210050E-05
(PID.TID 0000.0001) %MON fCori_mean                   =  -4.3855676645210050E-05
(PID.TID 0000.0001) %MON fCori_sd                     =   0.0000000000000000E+00
(PID.TID 0000.0001) %MON fCoriG_max                   =  -4.5067801836624727E-05
(PID.TID 0000.0001) %MON fCoriG_min                   =  -4.5067801836624727E-05
(PID.TID 0000.0001) %MON fCoriG_mean                  =  -4.5067801836624727E-05
(PID.TID 0000.0001) %MON fCoriG_sd                    =   0.0000000000000000E+00
(PID.TID 0000.0001) %MON fCoriCos_max                 =   1.3909243610206993E-04
(PID.TID 0000.0001) %MON fCoriCos_min                 =   1.3909243610206993E-04
(PID.TID 0000.0001) %MON fCoriCos_mean                =   1.3909243610206993E-04
(PID.TID 0000.0001) %MON fCoriCos_sd                  =   0.0000000000000000E+00
(PID.TID 0000.0001) %MON time_tsnumber                =                     0
(PID.TID 0000.0001) %MON time_secondsf                =   0.0000000000000000E+00
(PID.TID 0000.0001) %MON dynstat_eta_max              =   0.0000000000000000E+00
(PID.TID 0000.0001) %MON dynstat_eta_min              =   0.0000000000000000E+00
(PID.TID 0000.0001) %MON dynstat_eta_mean             =   0.0000000000000000E+00
(PID.TID 0000.0001) %MON dynstat_eta_sd               =   0.0000000000000000E+00
(PID.TID 0000.0001) %MON dynstat_eta_del2             =   0.0000000000000000E+00
(PID.TID 0000.0001) %MON dynstat_uvel_max             =   0.0000000000000000E+00
(PID.TID 0000.0001) %MON dynstat_uvel_min             =   0.0000000000000000E+00
(PID.TID 0000.0001) %MON dynstat_uvel_mean            =   0.0000000000000000E+00
(PID.TID 0000.0001) %MON dynstat_uvel_sd              =   0.0000000000000000E+00
(PID.TID 0000.0001) %MON dynstat_uvel_del2            =   0.0000000000000000E+00
(PID.TID 0000.0001) %MON dynstat_vvel_max             =   0.0000000000000000E+00
(PID.TID 0000.0001) %MON dynstat_vvel_min             =   0.0000000000000000E+00
(PID.TID 0000.0001) %MON dynstat_vvel_mean            =   0.0000000000000000E+00
(PID.TID 0000.0001) %MON dynstat_vvel_sd              =   0.0000000000000000E+00
(PID.TID 0000.0001) %MON dynstat_vvel_del2            =   0.0000000000000000E+00
(PID.TID 0000.0001) %MON dynstat_wvel_max             =   0.0000000000000000E+00
(PID.TID 0000.0001) %MON dynstat_wvel_min             =   0.0000000000000000E+00
(PID.TID 0000.0001) %MON dynstat_wvel_mean            =   0.0000000000000000E+00
(PID.TID 0000.0001) %MON dynstat_wvel_sd              =   0.0000000000000000E+00
(PID.TID 0000.0001) %MON dynstat_wvel_del2            =   0.0000000000000000E+00
(PID.TID 0000.0001) %MON dynstat_theta_max            =   2.6345800399780273E+01
(PID.TID 0000.0001) %MON dynstat_theta_min            =   2.6737000942230225E+00
(PID.TID 0000.0001) %MON dynstat_theta_mean           =   5.4735936027057521E+00
(PID.TID 0000.0001) %MON dynstat_theta_sd             =   5.1972090828105486E+00
(PID.TID 0000.0001) %MON dynstat_theta_del2           =   0.0000000000000000E+00
(PID.TID 0000.0001) %MON dynstat_salt_max             =   3.5000000000000000E+01
(PID.TID 0000.0001) %MON dynstat_salt_min             =   3.5000000000000000E+01
(PID.TID 0000.0001) %MON dynstat_salt_mean            =   3.5000000000000007E+01
(PID.TID 0000.0001) %MON dynstat_salt_sd              =   7.1054273576010019E-15
(PID.TID 0000.0001) %MON dynstat_salt_del2            =   0.0000000000000000E+00
(PID.TID 0000.0001) %MON dynstat_sst_max              =   2.6345800399780273E+01
(PID.TID 0000.0001) %MON dynstat_sst_min              =   2.6345800399780273E+01
(PID.TID 0000.0001) %MON dynstat_sst_mean             =   2.6345800399780273E+01
(PID.TID 0000.0001) %MON dynstat_sst_sd               =   0.0000000000000000E+00
(PID.TID 0000.0001) %MON dynstat_sst_del2             =   0.0000000000000000E+00
(PID.TID 0000.0001) %MON dynstat_sss_max              =   3.5000000000000000E+01
(PID.TID 0000.0001) %MON dynstat_sss_min              =   3.5000000000000000E+01
(PID.TID 0000.0001) %MON dynstat_sss_mean             =   3.5000000000000000E+01
(PID.TID 0000.0001) %MON dynstat_sss_sd               =   0.0000000000000000E+00
(PID.TID 0000.0001) %MON dynstat_sss_del2             =   0.0000000000000000E+00
(PID.TID 0000.0001) %MON forcing_qnet_max             =   0.0000000000000000E+00
(PID.TID 0000.0001) %MON forcing_qnet_min             =   0.0000000000000000E+00
(PID.TID 0000.0001) %MON forcing_qnet_mean            =   0.0000000000000000E+00
(PID.TID 0000.0001) %MON forcing_qnet_sd              =   0.0000000000000000E+00
(PID.TID 0000.0001) %MON forcing_qnet_del2            =   0.0000000000000000E+00
(PID.TID 0000.0001) %MON forcing_qsw_max              =   0.0000000000000000E+00
(PID.TID 0000.0001) %MON forcing_qsw_min              =   0.0000000000000000E+00
(PID.TID 0000.0001) %MON forcing_qsw_mean             =   0.0000000000000000E+00
(PID.TID 0000.0001) %MON forcing_qsw_sd               =   0.0000000000000000E+00
(PID.TID 0000.0001) %MON forcing_qsw_del2             =   0.0000000000000000E+00
(PID.TID 0000.0001) %MON forcing_empmr_max            =   0.0000000000000000E+00
(PID.TID 0000.0001) %MON forcing_empmr_min            =   0.0000000000000000E+00
(PID.TID 0000.0001) %MON forcing_empmr_mean           =   0.0000000000000000E+00
(PID.TID 0000.0001) %MON forcing_empmr_sd             =   0.0000000000000000E+00
(PID.TID 0000.0001) %MON forcing_empmr_del2           =   0.0000000000000000E+00
(PID.TID 0000.0001) %MON forcing_fu_max               =   0.0000000000000000E+00
(PID.TID 0000.0001) %MON forcing_fu_min               =   0.0000000000000000E+00
(PID.TID 0000.0001) %MON forcing_fu_mean              =   0.0000000000000000E+00
(PID.TID 0000.0001) %MON forcing_fu_sd                =   0.0000000000000000E+00
(PID.TID 0000.0001) %MON forcing_fu_del2              =   0.0000000000000000E+00
(PID.TID 0000.0001) %MON forcing_fv_max               =   0.0000000000000000E+00
(PID.TID 0000.0001) %MON forcing_fv_min               =   0.0000000000000000E+00
(PID.TID 0000.0001) %MON forcing_fv_mean              =   0.0000000000000000E+00
(PID.TID 0000.0001) %MON forcing_fv_sd                =   0.0000000000000000E+00
(PID.TID 0000.0001) %MON forcing_fv_del2              =   0.0000000000000000E+00
(PID.TID 0000.0001) %MON advcfl_uvel_max              =   0.0000000000000000E+00
(PID.TID 0000.0001) %MON advcfl_vvel_max              =   0.0000000000000000E+00
(PID.TID 0000.0001) %MON advcfl_wvel_max              =   0.0000000000000000E+00
(PID.TID 0000.0001) %MON advcfl_W_hf_max              =   0.0000000000000000E+00
(PID.TID 0000.0001) %MON pe_b_mean                    =   0.0000000000000000E+00
(PID.TID 0000.0001) %MON ke_max                       =   0.0000000000000000E+00
(PID.TID 0000.0001) %MON ke_mean                      =   0.0000000000000000E+00
(PID.TID 0000.0001) %MON ke_vol                       =   4.1199767883484609E+13
(PID.TID 0000.0001) %MON vort_r_min                   =   0.0000000000000000E+00
(PID.TID 0000.0001) %MON vort_r_max                   =   0.0000000000000000E+00
(PID.TID 0000.0001) %MON vort_a_mean                  =  -4.5067801836624727E-05
(PID.TID 0000.0001) %MON vort_a_sd                    =  -4.1359030627651384E-25
(PID.TID 0000.0001) %MON vort_p_mean                  =  -4.5067801836624727E-05
(PID.TID 0000.0001) %MON vort_p_sd                    =   0.0000000000000000E+00
(PID.TID 0000.0001) %MON surfExpan_theta_mean         =   0.0000000000000000E+00
(PID.TID 0000.0001) %MON surfExpan_salt_mean          =   0.0000000000000000E+00
(PID.TID 0000.0001) %MON trcstat_ptracer01_max        =                      NAN
(PID.TID 0000.0001) %MON trcstat_ptracer01_min        =                      NAN
(PID.TID 0000.0001) %MON trcstat_ptracer01_mean       =                      NAN
(PID.TID 0000.0001) %MON trcstat_ptracer01_sd         =                      NAN
(PID.TID 0000.0001) %MON trcstat_ptracer01_del2       =                      NAN
(PID.TID 0000.0001) %MON trcstat_ptracer02_max        =   2.5584036484360695E-02
(PID.TID 0000.0001) %MON trcstat_ptracer02_min        =   1.8763074649541522E-07
(PID.TID 0000.0001) %MON trcstat_ptracer02_mean       =   6.0352662496818848E-04
(PID.TID 0000.0001) %MON trcstat_ptracer02_sd         =   3.2425361014467536E-03
(PID.TID 0000.0001) %MON trcstat_ptracer02_del2       =   0.0000000000000000E+00
(PID.TID 0000.0001) %MON trcstat_ptracer03_max        =   1.8258459866046906E-02
(PID.TID 0000.0001) %MON trcstat_ptracer03_min        =   3.8796779335825704E-06
(PID.TID 0000.0001) %MON trcstat_ptracer03_mean       =   6.0474443227462045E-04
(PID.TID 0000.0001) %MON trcstat_ptracer03_sd         =   1.9428680890593122E-03
(PID.TID 0000.0001) %MON trcstat_ptracer03_del2       =   0.0000000000000000E+00
(PID.TID 0000.0001) %MON trcstat_ptracer04_max        =   3.3903499603271484E+01
(PID.TID 0000.0001) %MON trcstat_ptracer04_min        =   4.6300001442432404E-02
(PID.TID 0000.0001) %MON trcstat_ptracer04_mean       =   2.3502389802217742E+01
(PID.TID 0000.0001) %MON trcstat_ptracer04_sd         =   7.8162030599380596E+00
(PID.TID 0000.0001) %MON trcstat_ptracer04_del2       =   0.0000000000000000E+00
(PID.TID 0000.0001) %MON trcstat_ptracer05_max        =   2.2437000274658203E+00
(PID.TID 0000.0001) %MON trcstat_ptracer05_min        =   2.1024999022483826E-01
(PID.TID 0000.0001) %MON trcstat_ptracer05_mean       =   1.5821337454308768E+00
(PID.TID 0000.0001) %MON trcstat_ptracer05_sd         =   4.6735065681379767E-01
(PID.TID 0000.0001) %MON trcstat_ptracer05_del2       =   0.0000000000000000E+00
(PID.TID 0000.0001) %MON trcstat_ptracer06_max        =   3.9387401580810547E+01
(PID.TID 0000.0001) %MON trcstat_ptracer06_min        =   1.2247999906539917E+00
(PID.TID 0000.0001) %MON trcstat_ptracer06_mean       =   2.9621888811155113E+01
(PID.TID 0000.0001) %MON trcstat_ptracer06_sd         =   1.1270588565468758E+01
(PID.TID 0000.0001) %MON trcstat_ptracer06_del2       =   0.0000000000000000E+00
(PID.TID 0000.0001) %MON trcstat_ptracer07_max        =   1.3000000035390258E-03
(PID.TID 0000.0001) %MON trcstat_ptracer07_min        =   1.3000000035390258E-03
(PID.TID 0000.0001) %MON trcstat_ptracer07_mean       =   1.3000000035390258E-03
(PID.TID 0000.0001) %MON trcstat_ptracer07_sd         =   0.0000000000000000E+00
(PID.TID 0000.0001) %MON trcstat_ptracer07_del2       =   0.0000000000000000E+00
(PID.TID 0000.0001) %MON trcstat_ptracer08_max        =   6.1361303552985191E-01
(PID.TID 0000.0001) %MON trcstat_ptracer08_min        =   0.0000000000000000E+00
(PID.TID 0000.0001) %MON trcstat_ptracer08_mean       =   2.5768235051024848E-02
(PID.TID 0000.0001) %MON trcstat_ptracer08_sd         =   1.1093058611766035E-01
(PID.TID 0000.0001) %MON trcstat_ptracer08_del2       =   0.0000000000000000E+00
(PID.TID 0000.0001) %MON trcstat_ptracer09_max        =   8.1815071403980255E-02
(PID.TID 0000.0001) %MON trcstat_ptracer09_min        =   0.0000000000000000E+00
(PID.TID 0000.0001) %MON trcstat_ptracer09_mean       =   3.4357646734699799E-03
(PID.TID 0000.0001) %MON trcstat_ptracer09_sd         =   1.4790744815688046E-02
(PID.TID 0000.0001) %MON trcstat_ptracer09_del2       =   0.0000000000000000E+00
(PID.TID 0000.0001) %MON trcstat_ptracer10_max        =   5.1134419627487659E-03
(PID.TID 0000.0001) %MON trcstat_ptracer10_min        =   0.0000000000000000E+00
(PID.TID 0000.0001) %MON trcstat_ptracer10_mean       =   2.1473529209187374E-04
(PID.TID 0000.0001) %MON trcstat_ptracer10_sd         =   9.2442155098050290E-04
(PID.TID 0000.0001) %MON trcstat_ptracer10_del2       =   0.0000000000000000E+00
(PID.TID 0000.0001) %MON trcstat_ptracer11_max        =   5.1134416025888640E-06
(PID.TID 0000.0001) %MON trcstat_ptracer11_min        =   0.0000000000000000E+00
(PID.TID 0000.0001) %MON trcstat_ptracer11_mean       =   2.1473529239837693E-07
(PID.TID 0000.0001) %MON trcstat_ptracer11_sd         =   9.2442155063872205E-07
(PID.TID 0000.0001) %MON trcstat_ptracer11_del2       =   0.0000000000000000E+00
(PID.TID 0000.0001) %MON trcstat_ptracer12_max        =   3.2696326961740851E-02
(PID.TID 0000.0001) %MON trcstat_ptracer12_min        =   1.4074325918045361E-04
(PID.TID 0000.0001) %MON trcstat_ptracer12_mean       =   9.4718200756289880E-03
(PID.TID 0000.0001) %MON trcstat_ptracer12_sd         =   1.1596152472639534E-02
(PID.TID 0000.0001) %MON trcstat_ptracer12_del2       =   0.0000000000000000E+00
(PID.TID 0000.0001) %MON trcstat_ptracer13_max        =   4.3595102615654469E-03
(PID.TID 0000.0001) %MON trcstat_ptracer13_min        =   1.8765767890727147E-05
(PID.TID 0000.0001) %MON trcstat_ptracer13_mean       =   1.2629093434171983E-03
(PID.TID 0000.0001) %MON trcstat_ptracer13_sd         =   1.5461536630186044E-03
(PID.TID 0000.0001) %MON trcstat_ptracer13_del2       =   0.0000000000000000E+00
(PID.TID 0000.0001) %MON trcstat_ptracer14_max        =   2.7246939134784043E-04
(PID.TID 0000.0001) %MON trcstat_ptracer14_min        =   1.1728604931704467E-06
(PID.TID 0000.0001) %MON trcstat_ptracer14_mean       =   7.8931833963574895E-05
(PID.TID 0000.0001) %MON trcstat_ptracer14_sd         =   9.6634603938662776E-05
(PID.TID 0000.0001) %MON trcstat_ptracer14_del2       =   0.0000000000000000E+00
(PID.TID 0000.0001) %MON trcstat_ptracer15_max        =   1.6253039240837097E-02
(PID.TID 0000.0001) %MON trcstat_ptracer15_min        =   1.1382005177438259E-03
(PID.TID 0000.0001) %MON trcstat_ptracer15_mean       =   5.4894673427532239E-03
(PID.TID 0000.0001) %MON trcstat_ptracer15_sd         =   5.1731692661236344E-03
(PID.TID 0000.0001) %MON trcstat_ptracer15_del2       =   0.0000000000000000E+00
(PID.TID 0000.0001) %MON trcstat_ptracer16_max        =   2.7246940703662403E-07
(PID.TID 0000.0001) %MON trcstat_ptracer16_min        =   1.1728603643845759E-09
(PID.TID 0000.0001) %MON trcstat_ptracer16_mean       =   7.8931834490194816E-08
(PID.TID 0000.0001) %MON trcstat_ptracer16_sd         =   9.6634605997272585E-08
(PID.TID 0000.0001) %MON trcstat_ptracer16_del2       =   0.0000000000000000E+00
(PID.TID 0000.0001) %MON trcstat_ptracer17_max        =                      NAN
(PID.TID 0000.0001) %MON trcstat_ptracer17_min        =                      NAN
(PID.TID 0000.0001) %MON trcstat_ptracer17_mean       =                      NAN
(PID.TID 0000.0001) %MON trcstat_ptracer17_sd         =                      NAN
(PID.TID 0000.0001) %MON trcstat_ptracer17_del2       =                      NAN
(PID.TID 0000.0001) %MON trcstat_ptracer18_max        =   8.8153867181972601E-04
(PID.TID 0000.0001) %MON trcstat_ptracer18_min        =   0.0000000000000000E+00
(PID.TID 0000.0001) %MON trcstat_ptracer18_mean       =   2.6284899836225207E-05
(PID.TID 0000.0001) %MON trcstat_ptracer18_sd         =   1.3780694875415345E-04
(PID.TID 0000.0001) %MON trcstat_ptracer18_del2       =   0.0000000000000000E+00
(PID.TID 0000.0001) %MON trcstat_ptracer19_max        =   8.8153867181972601E-04
(PID.TID 0000.0001) %MON trcstat_ptracer19_min        =   0.0000000000000000E+00
(PID.TID 0000.0001) %MON trcstat_ptracer19_mean       =   2.6284899836225207E-05
(PID.TID 0000.0001) %MON trcstat_ptracer19_sd         =   1.3780694875415345E-04
(PID.TID 0000.0001) %MON trcstat_ptracer19_del2       =   0.0000000000000000E+00
(PID.TID 0000.0001) %MON trcstat_ptracer20_max        =   8.8153867181972601E-04
(PID.TID 0000.0001) %MON trcstat_ptracer20_min        =   0.0000000000000000E+00
(PID.TID 0000.0001) %MON trcstat_ptracer20_mean       =   2.6284899836225207E-05
(PID.TID 0000.0001) %MON trcstat_ptracer20_sd         =   1.3780694875415345E-04
(PID.TID 0000.0001) %MON trcstat_ptracer20_del2       =   0.0000000000000000E+00
(PID.TID 0000.0001) %MON trcstat_ptracer21_max        =   8.8153867181972601E-04
(PID.TID 0000.0001) %MON trcstat_ptracer21_min        =   0.0000000000000000E+00
(PID.TID 0000.0001) %MON trcstat_ptracer21_mean       =   2.6284899836225207E-05
(PID.TID 0000.0001) %MON trcstat_ptracer21_sd         =   1.3780694875415345E-04
(PID.TID 0000.0001) %MON trcstat_ptracer21_del2       =   0.0000000000000000E+00
(PID.TID 0000.0001) %MON trcstat_ptracer22_max        =   8.8153867181972601E-04
(PID.TID 0000.0001) %MON trcstat_ptracer22_min        =   0.0000000000000000E+00
(PID.TID 0000.0001) %MON trcstat_ptracer22_mean       =   2.6284899836225207E-05
(PID.TID 0000.0001) %MON trcstat_ptracer22_sd         =   1.3780694875415345E-04
(PID.TID 0000.0001) %MON trcstat_ptracer22_del2       =   0.0000000000000000E+00
(PID.TID 0000.0001) %MON trcstat_ptracer23_max        =   8.8153867181972601E-04
(PID.TID 0000.0001) %MON trcstat_ptracer23_min        =   0.0000000000000000E+00
(PID.TID 0000.0001) %MON trcstat_ptracer23_mean       =   2.6284899836225207E-05
(PID.TID 0000.0001) %MON trcstat_ptracer23_sd         =   1.3780694875415345E-04
(PID.TID 0000.0001) %MON trcstat_ptracer23_del2       =   0.0000000000000000E+00
(PID.TID 0000.0001) %MON trcstat_ptracer24_max        =   8.8153867181972601E-04
(PID.TID 0000.0001) %MON trcstat_ptracer24_min        =   0.0000000000000000E+00
(PID.TID 0000.0001) %MON trcstat_ptracer24_mean       =   2.6284899836225207E-05
(PID.TID 0000.0001) %MON trcstat_ptracer24_sd         =   1.3780694875415345E-04
(PID.TID 0000.0001) %MON trcstat_ptracer24_del2       =   0.0000000000000000E+00
(PID.TID 0000.0001) %MON trcstat_ptracer25_max        =   8.8153867181972601E-04
(PID.TID 0000.0001) %MON trcstat_ptracer25_min        =   0.0000000000000000E+00
(PID.TID 0000.0001) %MON trcstat_ptracer25_mean       =   2.6284899836225207E-05
(PID.TID 0000.0001) %MON trcstat_ptracer25_sd         =   1.3780694875415345E-04
(PID.TID 0000.0001) %MON trcstat_ptracer25_del2       =   0.0000000000000000E+00
(PID.TID 0000.0001) %MON trcstat_ptracer26_max        =   8.8153867181972601E-04
(PID.TID 0000.0001) %MON trcstat_ptracer26_min        =   0.0000000000000000E+00
(PID.TID 0000.0001) %MON trcstat_ptracer26_mean       =   2.6284899836225207E-05
(PID.TID 0000.0001) %MON trcstat_ptracer26_sd         =   1.3780694875415345E-04
(PID.TID 0000.0001) %MON trcstat_ptracer26_del2       =   0.0000000000000000E+00
(PID.TID 0000.0001) %MON trcstat_ptracer27_max        =   8.8153867181972601E-04
(PID.TID 0000.0001) %MON trcstat_ptracer27_min        =   0.0000000000000000E+00
(PID.TID 0000.0001) %MON trcstat_ptracer27_mean       =   2.6284899836225207E-05
(PID.TID 0000.0001) %MON trcstat_ptracer27_sd         =   1.3780694875415345E-04
(PID.TID 0000.0001) %MON trcstat_ptracer27_del2       =   0.0000000000000000E+00
(PID.TID 0000.0001) %MON trcstat_ptracer28_max        =   8.8153867181972601E-04
(PID.TID 0000.0001) %MON trcstat_ptracer28_min        =   0.0000000000000000E+00
(PID.TID 0000.0001) %MON trcstat_ptracer28_mean       =   2.6284899836225207E-05
(PID.TID 0000.0001) %MON trcstat_ptracer28_sd         =   1.3780694875415345E-04
(PID.TID 0000.0001) %MON trcstat_ptracer28_del2       =   0.0000000000000000E+00
(PID.TID 0000.0001) %MON trcstat_ptracer29_max        =   8.8153867181972601E-04
(PID.TID 0000.0001) %MON trcstat_ptracer29_min        =   0.0000000000000000E+00
(PID.TID 0000.0001) %MON trcstat_ptracer29_mean       =   2.6284899836225207E-05
(PID.TID 0000.0001) %MON trcstat_ptracer29_sd         =   1.3780694875415345E-04
(PID.TID 0000.0001) %MON trcstat_ptracer29_del2       =   0.0000000000000000E+00
(PID.TID 0000.0001) %MON trcstat_ptracer30_max        =   8.8153867181972601E-04
(PID.TID 0000.0001) %MON trcstat_ptracer30_min        =   0.0000000000000000E+00
(PID.TID 0000.0001) %MON trcstat_ptracer30_mean       =   2.6284899836225207E-05
(PID.TID 0000.0001) %MON trcstat_ptracer30_sd         =   1.3780694875415345E-04
(PID.TID 0000.0001) %MON trcstat_ptracer30_del2       =   0.0000000000000000E+00
(PID.TID 0000.0001) %MON trcstat_ptracer31_max        =   8.8153867181972601E-04
(PID.TID 0000.0001) %MON trcstat_ptracer31_min        =   0.0000000000000000E+00
(PID.TID 0000.0001) %MON trcstat_ptracer31_mean       =   2.6284899836225207E-05
(PID.TID 0000.0001) %MON trcstat_ptracer31_sd         =   1.3780694875415345E-04
(PID.TID 0000.0001) %MON trcstat_ptracer31_del2       =   0.0000000000000000E+00
(PID.TID 0000.0001) %MON trcstat_ptracer32_max        =   8.8153867181972601E-04
(PID.TID 0000.0001) %MON trcstat_ptracer32_min        =   0.0000000000000000E+00
(PID.TID 0000.0001) %MON trcstat_ptracer32_mean       =   2.6284899836225207E-05
(PID.TID 0000.0001) %MON trcstat_ptracer32_sd         =   1.3780694875415345E-04
(PID.TID 0000.0001) %MON trcstat_ptracer32_del2       =   0.0000000000000000E+00
(PID.TID 0000.0001) %MON trcstat_ptracer33_max        =   8.8153867181972601E-04
(PID.TID 0000.0001) %MON trcstat_ptracer33_min        =   0.0000000000000000E+00
(PID.TID 0000.0001) %MON trcstat_ptracer33_mean       =   2.6284899836225207E-05
(PID.TID 0000.0001) %MON trcstat_ptracer33_sd         =   1.3780694875415345E-04
(PID.TID 0000.0001) %MON trcstat_ptracer33_del2       =   0.0000000000000000E+00
(PID.TID 0000.0001) %MON trcstat_ptracer34_max        =   8.8153867181972601E-04
(PID.TID 0000.0001) %MON trcstat_ptracer34_min        =   0.0000000000000000E+00
(PID.TID 0000.0001) %MON trcstat_ptracer34_mean       =   2.6284899836225207E-05
(PID.TID 0000.0001) %MON trcstat_ptracer34_sd         =   1.3780694875415345E-04
(PID.TID 0000.0001) %MON trcstat_ptracer34_del2       =   0.0000000000000000E+00
(PID.TID 0000.0001) %MON trcstat_ptracer35_max        =   8.8153867181972601E-04
(PID.TID 0000.0001) %MON trcstat_ptracer35_min        =   0.0000000000000000E+00
(PID.TID 0000.0001) %MON trcstat_ptracer35_mean       =   2.6284899836225207E-05
(PID.TID 0000.0001) %MON trcstat_ptracer35_sd         =   1.3780694875415345E-04
(PID.TID 0000.0001) %MON trcstat_ptracer35_del2       =   0.0000000000000000E+00
(PID.TID 0000.0001) %MON trcstat_ptracer36_max        =   8.8153867181972601E-04
(PID.TID 0000.0001) %MON trcstat_ptracer36_min        =   0.0000000000000000E+00
(PID.TID 0000.0001) %MON trcstat_ptracer36_mean       =   2.6284899836225207E-05
(PID.TID 0000.0001) %MON trcstat_ptracer36_sd         =   1.3780694875415345E-04
(PID.TID 0000.0001) %MON trcstat_ptracer36_del2       =   0.0000000000000000E+00
(PID.TID 0000.0001) %MON trcstat_ptracer37_max        =   8.8153867181972601E-04
(PID.TID 0000.0001) %MON trcstat_ptracer37_min        =   0.0000000000000000E+00
(PID.TID 0000.0001) %MON trcstat_ptracer37_mean       =   2.6284899836225207E-05
(PID.TID 0000.0001) %MON trcstat_ptracer37_sd         =   1.3780694875415345E-04
(PID.TID 0000.0001) %MON trcstat_ptracer37_del2       =   0.0000000000000000E+00
(PID.TID 0000.0001) %MON trcstat_ptracer38_max        =   8.8153867181972601E-04
(PID.TID 0000.0001) %MON trcstat_ptracer38_min        =   0.0000000000000000E+00
(PID.TID 0000.0001) %MON trcstat_ptracer38_mean       =   2.6284899836225207E-05
(PID.TID 0000.0001) %MON trcstat_ptracer38_sd         =   1.3780694875415345E-04
(PID.TID 0000.0001) %MON trcstat_ptracer38_del2       =   0.0000000000000000E+00
(PID.TID 0000.0001) %MON trcstat_ptracer39_max        =   8.8153867181972601E-04
(PID.TID 0000.0001) %MON trcstat_ptracer39_min        =   0.0000000000000000E+00
(PID.TID 0000.0001) %MON trcstat_ptracer39_mean       =   2.6284899836225207E-05
(PID.TID 0000.0001) %MON trcstat_ptracer39_sd         =   1.3780694875415345E-04
(PID.TID 0000.0001) %MON trcstat_ptracer39_del2       =   0.0000000000000000E+00
(PID.TID 0000.0001) %MON trcstat_ptracer40_max        =   8.8153867181972601E-04
(PID.TID 0000.0001) %MON trcstat_ptracer40_min        =   0.0000000000000000E+00
(PID.TID 0000.0001) %MON trcstat_ptracer40_mean       =   2.6284899836225207E-05
(PID.TID 0000.0001) %MON trcstat_ptracer40_sd         =   1.3780694875415345E-04
(PID.TID 0000.0001) %MON trcstat_ptracer40_del2       =   0.0000000000000000E+00
(PID.TID 0000.0001) %MON trcstat_ptracer41_max        =   8.8153867181972601E-04
(PID.TID 0000.0001) %MON trcstat_ptracer41_min        =   0.0000000000000000E+00
(PID.TID 0000.0001) %MON trcstat_ptracer41_mean       =   2.6284899836225207E-05
(PID.TID 0000.0001) %MON trcstat_ptracer41_sd         =   1.3780694875415345E-04
(PID.TID 0000.0001) %MON trcstat_ptracer41_del2       =   0.0000000000000000E+00
(PID.TID 0000.0001) %MON trcstat_ptracer42_max        =   8.8153867181972601E-04
(PID.TID 0000.0001) %MON trcstat_ptracer42_min        =   0.0000000000000000E+00
(PID.TID 0000.0001) %MON trcstat_ptracer42_mean       =   2.6284899836225207E-05
(PID.TID 0000.0001) %MON trcstat_ptracer42_sd         =   1.3780694875415345E-04
(PID.TID 0000.0001) %MON trcstat_ptracer42_del2       =   0.0000000000000000E+00
(PID.TID 0000.0001) %MON trcstat_ptracer43_max        =   8.8153867181972601E-04
(PID.TID 0000.0001) %MON trcstat_ptracer43_min        =   0.0000000000000000E+00
(PID.TID 0000.0001) %MON trcstat_ptracer43_mean       =   2.6284899836225207E-05
(PID.TID 0000.0001) %MON trcstat_ptracer43_sd         =   1.3780694875415345E-04
(PID.TID 0000.0001) %MON trcstat_ptracer43_del2       =   0.0000000000000000E+00
(PID.TID 0000.0001) %MON trcstat_ptracer44_max        =   8.8153867181972601E-04
(PID.TID 0000.0001) %MON trcstat_ptracer44_min        =   0.0000000000000000E+00
(PID.TID 0000.0001) %MON trcstat_ptracer44_mean       =   2.6284899836225207E-05
(PID.TID 0000.0001) %MON trcstat_ptracer44_sd         =   1.3780694875415345E-04
(PID.TID 0000.0001) %MON trcstat_ptracer44_del2       =   0.0000000000000000E+00
(PID.TID 0000.0001) %MON trcstat_ptracer45_max        =   8.8153867181972601E-04
(PID.TID 0000.0001) %MON trcstat_ptracer45_min        =   0.0000000000000000E+00
(PID.TID 0000.0001) %MON trcstat_ptracer45_mean       =   2.6284899836225207E-05
(PID.TID 0000.0001) %MON trcstat_ptracer45_sd         =   1.3780694875415345E-04
(PID.TID 0000.0001) %MON trcstat_ptracer45_del2       =   0.0000000000000000E+00
(PID.TID 0000.0001) %MON trcstat_ptracer46_max        =   8.8153867181972601E-04
(PID.TID 0000.0001) %MON trcstat_ptracer46_min        =   0.0000000000000000E+00
(PID.TID 0000.0001) %MON trcstat_ptracer46_mean       =   2.6284899836225207E-05
(PID.TID 0000.0001) %MON trcstat_ptracer46_sd         =   1.3780694875415345E-04
(PID.TID 0000.0001) %MON trcstat_ptracer46_del2       =   0.0000000000000000E+00
(PID.TID 0000.0001) %MON trcstat_ptracer47_max        =   8.8153867181972601E-04
(PID.TID 0000.0001) %MON trcstat_ptracer47_min        =   0.0000000000000000E+00
(PID.TID 0000.0001) %MON trcstat_ptracer47_mean       =   2.6284899836225207E-05
(PID.TID 0000.0001) %MON trcstat_ptracer47_sd         =   1.3780694875415345E-04
(PID.TID 0000.0001) %MON trcstat_ptracer47_del2       =   0.0000000000000000E+00
(PID.TID 0000.0001) %MON trcstat_ptracer48_max        =   8.8153867181972601E-04
(PID.TID 0000.0001) %MON trcstat_ptracer48_min        =   0.0000000000000000E+00
(PID.TID 0000.0001) %MON trcstat_ptracer48_mean       =   2.6284899836225207E-05
(PID.TID 0000.0001) %MON trcstat_ptracer48_sd         =   1.3780694875415345E-04
(PID.TID 0000.0001) %MON trcstat_ptracer48_del2       =   0.0000000000000000E+00
(PID.TID 0000.0001) %MON trcstat_ptracer49_max        =   8.8153867181972601E-04
(PID.TID 0000.0001) %MON trcstat_ptracer49_min        =   0.0000000000000000E+00
(PID.TID 0000.0001) %MON trcstat_ptracer49_mean       =   2.6284899836225207E-05
(PID.TID 0000.0001) %MON trcstat_ptracer49_sd         =   1.3780694875415345E-04
(PID.TID 0000.0001) %MON trcstat_ptracer49_del2       =   0.0000000000000000E+00
(PID.TID 0000.0001) %MON trcstat_ptracer50_max        =   8.8153867181972601E-04
(PID.TID 0000.0001) %MON trcstat_ptracer50_min        =   0.0000000000000000E+00
(PID.TID 0000.0001) %MON trcstat_ptracer50_mean       =   2.6284899836225207E-05
(PID.TID 0000.0001) %MON trcstat_ptracer50_sd         =   1.3780694875415345E-04
(PID.TID 0000.0001) %MON trcstat_ptracer50_del2       =   0.0000000000000000E+00
(PID.TID 0000.0001) %MON trcstat_ptracer51_max        =   8.8153867181972601E-04
(PID.TID 0000.0001) %MON trcstat_ptracer51_min        =   0.0000000000000000E+00
(PID.TID 0000.0001) %MON trcstat_ptracer51_mean       =   2.6284899836225207E-05
(PID.TID 0000.0001) %MON trcstat_ptracer51_sd         =   1.3780694875415345E-04
(PID.TID 0000.0001) %MON trcstat_ptracer51_del2       =   0.0000000000000000E+00
(PID.TID 0000.0001) %MON trcstat_ptracer52_max        =   8.8153867181972601E-04
(PID.TID 0000.0001) %MON trcstat_ptracer52_min        =   0.0000000000000000E+00
(PID.TID 0000.0001) %MON trcstat_ptracer52_mean       =   2.6284899836225207E-05
(PID.TID 0000.0001) %MON trcstat_ptracer52_sd         =   1.3780694875415345E-04
(PID.TID 0000.0001) %MON trcstat_ptracer52_del2       =   0.0000000000000000E+00
(PID.TID 0000.0001) %MON trcstat_ptracer53_max        =   8.8153867181972601E-04
(PID.TID 0000.0001) %MON trcstat_ptracer53_min        =   0.0000000000000000E+00
(PID.TID 0000.0001) %MON trcstat_ptracer53_mean       =   2.6284899836225207E-05
(PID.TID 0000.0001) %MON trcstat_ptracer53_sd         =   1.3780694875415345E-04
(PID.TID 0000.0001) %MON trcstat_ptracer53_del2       =   0.0000000000000000E+00
(PID.TID 0000.0001) %MON trcstat_ptracer54_max        =   8.8153867181972601E-04
(PID.TID 0000.0001) %MON trcstat_ptracer54_min        =   0.0000000000000000E+00
(PID.TID 0000.0001) %MON trcstat_ptracer54_mean       =   2.6284899836225207E-05
(PID.TID 0000.0001) %MON trcstat_ptracer54_sd         =   1.3780694875415345E-04
(PID.TID 0000.0001) %MON trcstat_ptracer54_del2       =   0.0000000000000000E+00
(PID.TID 0000.0001) %MON trcstat_ptracer55_max        =   8.8153867181972601E-04
(PID.TID 0000.0001) %MON trcstat_ptracer55_min        =   0.0000000000000000E+00
(PID.TID 0000.0001) %MON trcstat_ptracer55_mean       =   2.6284899836225207E-05
(PID.TID 0000.0001) %MON trcstat_ptracer55_sd         =   1.3780694875415345E-04
(PID.TID 0000.0001) %MON trcstat_ptracer55_del2       =   0.0000000000000000E+00
(PID.TID 0000.0001) %MON trcstat_ptracer56_max        =   8.8153867181972601E-04
(PID.TID 0000.0001) %MON trcstat_ptracer56_min        =   0.0000000000000000E+00
(PID.TID 0000.0001) %MON trcstat_ptracer56_mean       =   2.6284899836225207E-05
(PID.TID 0000.0001) %MON trcstat_ptracer56_sd         =   1.3780694875415345E-04
(PID.TID 0000.0001) %MON trcstat_ptracer56_del2       =   0.0000000000000000E+00
(PID.TID 0000.0001) %MON trcstat_ptracer57_max        =   8.8153867181972601E-04
(PID.TID 0000.0001) %MON trcstat_ptracer57_min        =   0.0000000000000000E+00
(PID.TID 0000.0001) %MON trcstat_ptracer57_mean       =   2.6284899836225207E-05
(PID.TID 0000.0001) %MON trcstat_ptracer57_sd         =   1.3780694875415345E-04
(PID.TID 0000.0001) %MON trcstat_ptracer57_del2       =   0.0000000000000000E+00
(PID.TID 0000.0001) %MON trcstat_ptracer58_max        =   8.8153867181972601E-04
(PID.TID 0000.0001) %MON trcstat_ptracer58_min        =   0.0000000000000000E+00
(PID.TID 0000.0001) %MON trcstat_ptracer58_mean       =   2.6284899836225207E-05
(PID.TID 0000.0001) %MON trcstat_ptracer58_sd         =   1.3780694875415345E-04
(PID.TID 0000.0001) %MON trcstat_ptracer58_del2       =   0.0000000000000000E+00
(PID.TID 0000.0001) %MON trcstat_ptracer59_max        =   8.8153867181972601E-04
(PID.TID 0000.0001) %MON trcstat_ptracer59_min        =   0.0000000000000000E+00
(PID.TID 0000.0001) %MON trcstat_ptracer59_mean       =   2.6284899836225207E-05
(PID.TID 0000.0001) %MON trcstat_ptracer59_sd         =   1.3780694875415345E-04
(PID.TID 0000.0001) %MON trcstat_ptracer59_del2       =   0.0000000000000000E+00
(PID.TID 0000.0001) %MON trcstat_ptracer60_max        =   8.8153867181972601E-04
(PID.TID 0000.0001) %MON trcstat_ptracer60_min        =   0.0000000000000000E+00
(PID.TID 0000.0001) %MON trcstat_ptracer60_mean       =   2.6284899836225207E-05
(PID.TID 0000.0001) %MON trcstat_ptracer60_sd         =   1.3780694875415345E-04
(PID.TID 0000.0001) %MON trcstat_ptracer60_del2       =   0.0000000000000000E+00
(PID.TID 0000.0001) %MON trcstat_ptracer61_max        =   8.8153867181972601E-04
(PID.TID 0000.0001) %MON trcstat_ptracer61_min        =   0.0000000000000000E+00
(PID.TID 0000.0001) %MON trcstat_ptracer61_mean       =   2.6284899836225207E-05
(PID.TID 0000.0001) %MON trcstat_ptracer61_sd         =   1.3780694875415345E-04
(PID.TID 0000.0001) %MON trcstat_ptracer61_del2       =   0.0000000000000000E+00
(PID.TID 0000.0001) %MON trcstat_ptracer62_max        =   8.8153867181972601E-04
(PID.TID 0000.0001) %MON trcstat_ptracer62_min        =   0.0000000000000000E+00
(PID.TID 0000.0001) %MON trcstat_ptracer62_mean       =   2.6284899836225207E-05
(PID.TID 0000.0001) %MON trcstat_ptracer62_sd         =   1.3780694875415345E-04
(PID.TID 0000.0001) %MON trcstat_ptracer62_del2       =   0.0000000000000000E+00
(PID.TID 0000.0001) %MON trcstat_ptracer63_max        =   8.8153867181972601E-04
(PID.TID 0000.0001) %MON trcstat_ptracer63_min        =   0.0000000000000000E+00
(PID.TID 0000.0001) %MON trcstat_ptracer63_mean       =   2.6284899836225207E-05
(PID.TID 0000.0001) %MON trcstat_ptracer63_sd         =   1.3780694875415345E-04
(PID.TID 0000.0001) %MON trcstat_ptracer63_del2       =   0.0000000000000000E+00
(PID.TID 0000.0001) %MON trcstat_ptracer64_max        =   8.8153867181972601E-04
(PID.TID 0000.0001) %MON trcstat_ptracer64_min        =   0.0000000000000000E+00
(PID.TID 0000.0001) %MON trcstat_ptracer64_mean       =   2.6284899836225207E-05
(PID.TID 0000.0001) %MON trcstat_ptracer64_sd         =   1.3780694875415345E-04
(PID.TID 0000.0001) %MON trcstat_ptracer64_del2       =   0.0000000000000000E+00
(PID.TID 0000.0001) %MON trcstat_ptracer65_max        =   8.8153867181972601E-04
(PID.TID 0000.0001) %MON trcstat_ptracer65_min        =   0.0000000000000000E+00
(PID.TID 0000.0001) %MON trcstat_ptracer65_mean       =   2.6284899836225207E-05
(PID.TID 0000.0001) %MON trcstat_ptracer65_sd         =   1.3780694875415345E-04
(PID.TID 0000.0001) %MON trcstat_ptracer65_del2       =   0.0000000000000000E+00
(PID.TID 0000.0001) %MON trcstat_ptracer66_max        =   8.8153867181972601E-04
(PID.TID 0000.0001) %MON trcstat_ptracer66_min        =   0.0000000000000000E+00
(PID.TID 0000.0001) %MON trcstat_ptracer66_mean       =   2.6284899836225207E-05
(PID.TID 0000.0001) %MON trcstat_ptracer66_sd         =   1.3780694875415345E-04
(PID.TID 0000.0001) %MON trcstat_ptracer66_del2       =   0.0000000000000000E+00
(PID.TID 0000.0001) %MON trcstat_ptracer67_max        =   8.8153867181972601E-04
(PID.TID 0000.0001) %MON trcstat_ptracer67_min        =   0.0000000000000000E+00
(PID.TID 0000.0001) %MON trcstat_ptracer67_mean       =   2.6284899836225207E-05
(PID.TID 0000.0001) %MON trcstat_ptracer67_sd         =   1.3780694875415345E-04
(PID.TID 0000.0001) %MON trcstat_ptracer67_del2       =   0.0000000000000000E+00
(PID.TID 0000.0001) %MON trcstat_ptracer68_max        =   8.8153867181972601E-04
(PID.TID 0000.0001) %MON trcstat_ptracer68_min        =   0.0000000000000000E+00
(PID.TID 0000.0001) %MON trcstat_ptracer68_mean       =   2.6284899836225207E-05
(PID.TID 0000.0001) %MON trcstat_ptracer68_sd         =   1.3780694875415345E-04
(PID.TID 0000.0001) %MON trcstat_ptracer68_del2       =   0.0000000000000000E+00
(PID.TID 0000.0001) %MON trcstat_ptracer69_max        =   8.8153867181972601E-04
(PID.TID 0000.0001) %MON trcstat_ptracer69_min        =   0.0000000000000000E+00
(PID.TID 0000.0001) %MON trcstat_ptracer69_mean       =   2.6284899836225207E-05
(PID.TID 0000.0001) %MON trcstat_ptracer69_sd         =   1.3780694875415345E-04
(PID.TID 0000.0001) %MON trcstat_ptracer69_del2       =   0.0000000000000000E+00
(PID.TID 0000.0001) %MON trcstat_ptracer70_max        =   8.8153867181972601E-04
(PID.TID 0000.0001) %MON trcstat_ptracer70_min        =   0.0000000000000000E+00
(PID.TID 0000.0001) %MON trcstat_ptracer70_mean       =   2.6284899836225207E-05
(PID.TID 0000.0001) %MON trcstat_ptracer70_sd         =   1.3780694875415345E-04
(PID.TID 0000.0001) %MON trcstat_ptracer70_del2       =   0.0000000000000000E+00
(PID.TID 0000.0001) %MON trcstat_ptracer71_max        =   8.8153867181972601E-04
(PID.TID 0000.0001) %MON trcstat_ptracer71_min        =   0.0000000000000000E+00
(PID.TID 0000.0001) %MON trcstat_ptracer71_mean       =   2.6284899836225207E-05
(PID.TID 0000.0001) %MON trcstat_ptracer71_sd         =   1.3780694875415345E-04
(PID.TID 0000.0001) %MON trcstat_ptracer71_del2       =   0.0000000000000000E+00
(PID.TID 0000.0001) %MON trcstat_ptracer72_max        =   8.8153867181972601E-04
(PID.TID 0000.0001) %MON trcstat_ptracer72_min        =   0.0000000000000000E+00
(PID.TID 0000.0001) %MON trcstat_ptracer72_mean       =   2.6284899836225207E-05
(PID.TID 0000.0001) %MON trcstat_ptracer72_sd         =   1.3780694875415345E-04
(PID.TID 0000.0001) %MON trcstat_ptracer72_del2       =   0.0000000000000000E+00
(PID.TID 0000.0001) %MON trcstat_ptracer73_max        =   8.8153867181972601E-04
(PID.TID 0000.0001) %MON trcstat_ptracer73_min        =   0.0000000000000000E+00
(PID.TID 0000.0001) %MON trcstat_ptracer73_mean       =   2.6284899836225207E-05
(PID.TID 0000.0001) %MON trcstat_ptracer73_sd         =   1.3780694875415345E-04
(PID.TID 0000.0001) %MON trcstat_ptracer73_del2       =   0.0000000000000000E+00
(PID.TID 0000.0001) %MON trcstat_ptracer74_max        =   8.8153867181972601E-04
(PID.TID 0000.0001) %MON trcstat_ptracer74_min        =   0.0000000000000000E+00
(PID.TID 0000.0001) %MON trcstat_ptracer74_mean       =   2.6284899836225207E-05
(PID.TID 0000.0001) %MON trcstat_ptracer74_sd         =   1.3780694875415345E-04
(PID.TID 0000.0001) %MON trcstat_ptracer74_del2       =   0.0000000000000000E+00
(PID.TID 0000.0001) %MON trcstat_ptracer75_max        =   8.8153867181972601E-04
(PID.TID 0000.0001) %MON trcstat_ptracer75_min        =   0.0000000000000000E+00
(PID.TID 0000.0001) %MON trcstat_ptracer75_mean       =   2.6284899836225207E-05
(PID.TID 0000.0001) %MON trcstat_ptracer75_sd         =   1.3780694875415345E-04
(PID.TID 0000.0001) %MON trcstat_ptracer75_del2       =   0.0000000000000000E+00
(PID.TID 0000.0001) %MON trcstat_ptracer76_max        =   8.8153867181972601E-04
(PID.TID 0000.0001) %MON trcstat_ptracer76_min        =   0.0000000000000000E+00
(PID.TID 0000.0001) %MON trcstat_ptracer76_mean       =   2.6284899836225207E-05
(PID.TID 0000.0001) %MON trcstat_ptracer76_sd         =   1.3780694875415345E-04
(PID.TID 0000.0001) %MON trcstat_ptracer76_del2       =   0.0000000000000000E+00
(PID.TID 0000.0001) %MON trcstat_ptracer77_max        =   8.8153867181972601E-04
(PID.TID 0000.0001) %MON trcstat_ptracer77_min        =   0.0000000000000000E+00
(PID.TID 0000.0001) %MON trcstat_ptracer77_mean       =   2.6284899836225207E-05
(PID.TID 0000.0001) %MON trcstat_ptracer77_sd         =   1.3780694875415345E-04
(PID.TID 0000.0001) %MON trcstat_ptracer77_del2       =   0.0000000000000000E+00
(PID.TID 0000.0001) %MON trcstat_ptracer78_max        =   8.8153867181972601E-04
(PID.TID 0000.0001) %MON trcstat_ptracer78_min        =   0.0000000000000000E+00
(PID.TID 0000.0001) %MON trcstat_ptracer78_mean       =   2.6284899836225207E-05
(PID.TID 0000.0001) %MON trcstat_ptracer78_sd         =   1.3780694875415345E-04
(PID.TID 0000.0001) %MON trcstat_ptracer78_del2       =   0.0000000000000000E+00
(PID.TID 0000.0001) %MON trcstat_ptracer79_max        =   8.8153867181972601E-04
(PID.TID 0000.0001) %MON trcstat_ptracer79_min        =   0.0000000000000000E+00
(PID.TID 0000.0001) %MON trcstat_ptracer79_mean       =   2.6284899836225207E-05
(PID.TID 0000.0001) %MON trcstat_ptracer79_sd         =   1.3780694875415345E-04
(PID.TID 0000.0001) %MON trcstat_ptracer79_del2       =   0.0000000000000000E+00
(PID.TID 0000.0001) %MON trcstat_ptracer80_max        =   8.8153867181972601E-04
(PID.TID 0000.0001) %MON trcstat_ptracer80_min        =   0.0000000000000000E+00
(PID.TID 0000.0001) %MON trcstat_ptracer80_mean       =   2.6284899836225207E-05
(PID.TID 0000.0001) %MON trcstat_ptracer80_sd         =   1.3780694875415345E-04
(PID.TID 0000.0001) %MON trcstat_ptracer80_del2       =   0.0000000000000000E+00
(PID.TID 0000.0001) %MON trcstat_ptracer81_max        =   8.8153867181972601E-04
(PID.TID 0000.0001) %MON trcstat_ptracer81_min        =   0.0000000000000000E+00
(PID.TID 0000.0001) %MON trcstat_ptracer81_mean       =   2.6284899836225207E-05
(PID.TID 0000.0001) %MON trcstat_ptracer81_sd         =   1.3780694875415345E-04
(PID.TID 0000.0001) %MON trcstat_ptracer81_del2       =   0.0000000000000000E+00
(PID.TID 0000.0001) %MON trcstat_ptracer82_max        =   8.8153867181972601E-04
(PID.TID 0000.0001) %MON trcstat_ptracer82_min        =   0.0000000000000000E+00
(PID.TID 0000.0001) %MON trcstat_ptracer82_mean       =   2.6284899836225207E-05
(PID.TID 0000.0001) %MON trcstat_ptracer82_sd         =   1.3780694875415345E-04
(PID.TID 0000.0001) %MON trcstat_ptracer82_del2       =   0.0000000000000000E+00
(PID.TID 0000.0001) %MON trcstat_ptracer83_max        =   8.8153867181972601E-04
(PID.TID 0000.0001) %MON trcstat_ptracer83_min        =   0.0000000000000000E+00
(PID.TID 0000.0001) %MON trcstat_ptracer83_mean       =   2.6284899836225207E-05
(PID.TID 0000.0001) %MON trcstat_ptracer83_sd         =   1.3780694875415345E-04
(PID.TID 0000.0001) %MON trcstat_ptracer83_del2       =   0.0000000000000000E+00
(PID.TID 0000.0001) %MON trcstat_ptracer84_max        =   8.8153867181972601E-04
(PID.TID 0000.0001) %MON trcstat_ptracer84_min        =   0.0000000000000000E+00
(PID.TID 0000.0001) %MON trcstat_ptracer84_mean       =   2.6284899836225207E-05
(PID.TID 0000.0001) %MON trcstat_ptracer84_sd         =   1.3780694875415345E-04
(PID.TID 0000.0001) %MON trcstat_ptracer84_del2       =   0.0000000000000000E+00
(PID.TID 0000.0001) %MON trcstat_ptracer85_max        =   8.8153867181972601E-04
(PID.TID 0000.0001) %MON trcstat_ptracer85_min        =   0.0000000000000000E+00
(PID.TID 0000.0001) %MON trcstat_ptracer85_mean       =   2.6284899836225207E-05
(PID.TID 0000.0001) %MON trcstat_ptracer85_sd         =   1.3780694875415345E-04
(PID.TID 0000.0001) %MON trcstat_ptracer85_del2       =   0.0000000000000000E+00
(PID.TID 0000.0001) %MON trcstat_ptracer86_max        =   8.8153867181972601E-04
(PID.TID 0000.0001) %MON trcstat_ptracer86_min        =   0.0000000000000000E+00
(PID.TID 0000.0001) %MON trcstat_ptracer86_mean       =   2.6284899836225207E-05
(PID.TID 0000.0001) %MON trcstat_ptracer86_sd         =   1.3780694875415345E-04
(PID.TID 0000.0001) %MON trcstat_ptracer86_del2       =   0.0000000000000000E+00
(PID.TID 0000.0001) %MON trcstat_ptracer87_max        =   8.8153867181972601E-04
(PID.TID 0000.0001) %MON trcstat_ptracer87_min        =   0.0000000000000000E+00
(PID.TID 0000.0001) %MON trcstat_ptracer87_mean       =   2.6284899836225207E-05
(PID.TID 0000.0001) %MON trcstat_ptracer87_sd         =   1.3780694875415345E-04
(PID.TID 0000.0001) %MON trcstat_ptracer87_del2       =   0.0000000000000000E+00
(PID.TID 0000.0001) %MON trcstat_ptracer88_max        =   8.8153867181972601E-04
(PID.TID 0000.0001) %MON trcstat_ptracer88_min        =   0.0000000000000000E+00
(PID.TID 0000.0001) %MON trcstat_ptracer88_mean       =   2.6284899836225207E-05
(PID.TID 0000.0001) %MON trcstat_ptracer88_sd         =   1.3780694875415345E-04
(PID.TID 0000.0001) %MON trcstat_ptracer88_del2       =   0.0000000000000000E+00
(PID.TID 0000.0001) %MON trcstat_ptracer89_max        =   8.8153867181972601E-04
(PID.TID 0000.0001) %MON trcstat_ptracer89_min        =   0.0000000000000000E+00
(PID.TID 0000.0001) %MON trcstat_ptracer89_mean       =   2.6284899836225207E-05
(PID.TID 0000.0001) %MON trcstat_ptracer89_sd         =   1.3780694875415345E-04
(PID.TID 0000.0001) %MON trcstat_ptracer89_del2       =   0.0000000000000000E+00
(PID.TID 0000.0001) %MON trcstat_ptracer90_max        =   8.8153867181972601E-04
(PID.TID 0000.0001) %MON trcstat_ptracer90_min        =   0.0000000000000000E+00
(PID.TID 0000.0001) %MON trcstat_ptracer90_mean       =   2.6284899836225207E-05
(PID.TID 0000.0001) %MON trcstat_ptracer90_sd         =   1.3780694875415345E-04
(PID.TID 0000.0001) %MON trcstat_ptracer90_del2       =   0.0000000000000000E+00
(PID.TID 0000.0001) %MON trcstat_ptracer91_max        =   8.8153867181972601E-04
(PID.TID 0000.0001) %MON trcstat_ptracer91_min        =   0.0000000000000000E+00
(PID.TID 0000.0001) %MON trcstat_ptracer91_mean       =   2.6284899836225207E-05
(PID.TID 0000.0001) %MON trcstat_ptracer91_sd         =   1.3780694875415345E-04
(PID.TID 0000.0001) %MON trcstat_ptracer91_del2       =   0.0000000000000000E+00
(PID.TID 0000.0001) %MON trcstat_ptracer92_max        =   8.8153867181972601E-04
(PID.TID 0000.0001) %MON trcstat_ptracer92_min        =   0.0000000000000000E+00
(PID.TID 0000.0001) %MON trcstat_ptracer92_mean       =   2.6284899836225207E-05
(PID.TID 0000.0001) %MON trcstat_ptracer92_sd         =   1.3780694875415345E-04
(PID.TID 0000.0001) %MON trcstat_ptracer92_del2       =   0.0000000000000000E+00
(PID.TID 0000.0001) %MON trcstat_ptracer93_max        =   8.8153867181972601E-04
(PID.TID 0000.0001) %MON trcstat_ptracer93_min        =   0.0000000000000000E+00
(PID.TID 0000.0001) %MON trcstat_ptracer93_mean       =   2.6284899836225207E-05
(PID.TID 0000.0001) %MON trcstat_ptracer93_sd         =   1.3780694875415345E-04
(PID.TID 0000.0001) %MON trcstat_ptracer93_del2       =   0.0000000000000000E+00
(PID.TID 0000.0001) %MON trcstat_ptracer94_max        =   8.8153867181972601E-04
(PID.TID 0000.0001) %MON trcstat_ptracer94_min        =   0.0000000000000000E+00
(PID.TID 0000.0001) %MON trcstat_ptracer94_mean       =   2.6284899836225207E-05
(PID.TID 0000.0001) %MON trcstat_ptracer94_sd         =   1.3780694875415345E-04
(PID.TID 0000.0001) %MON trcstat_ptracer94_del2       =   0.0000000000000000E+00
(PID.TID 0000.0001) %MON trcstat_ptracer95_max        =   8.8153867181972601E-04
(PID.TID 0000.0001) %MON trcstat_ptracer95_min        =   0.0000000000000000E+00
(PID.TID 0000.0001) %MON trcstat_ptracer95_mean       =   2.6284899836225207E-05
(PID.TID 0000.0001) %MON trcstat_ptracer95_sd         =   1.3780694875415345E-04
(PID.TID 0000.0001) %MON trcstat_ptracer95_del2       =   0.0000000000000000E+00
(PID.TID 0000.0001) %MON trcstat_ptracer96_max        =   1.2432850748922419E-07
(PID.TID 0000.0001) %MON trcstat_ptracer96_min        =   0.0000000000000000E+00
(PID.TID 0000.0001) %MON trcstat_ptracer96_mean       =   1.6442399905699555E-08
(PID.TID 0000.0001) %MON trcstat_ptracer96_sd         =   3.0074086738691421E-08
(PID.TID 0000.0001) %MON trcstat_ptracer96_del2       =   0.0000000000000000E+00
(PID.TID 0000.0001) %MON trcstat_ptracer97_max        =   1.2432850748922419E-07
(PID.TID 0000.0001) %MON trcstat_ptracer97_min        =   0.0000000000000000E+00
(PID.TID 0000.0001) %MON trcstat_ptracer97_mean       =   1.6442399905699555E-08
(PID.TID 0000.0001) %MON trcstat_ptracer97_sd         =   3.0074086738691421E-08
(PID.TID 0000.0001) %MON trcstat_ptracer97_del2       =   0.0000000000000000E+00
(PID.TID 0000.0001) %MON trcstat_ptracer98_max        =   3.3341737445800418E-04
(PID.TID 0000.0001) %MON trcstat_ptracer98_min        =   0.0000000000000000E+00
(PID.TID 0000.0001) %MON trcstat_ptracer98_mean       =   8.3175929926581054E-06
(PID.TID 0000.0001) %MON trcstat_ptracer98_sd         =   4.3588370228521279E-05
(PID.TID 0000.0001) %MON trcstat_ptracer98_del2       =   0.0000000000000000E+00
(PID.TID 0000.0001) %MON trcstat_ptracer99_max        =   3.6045629555504544E-04
(PID.TID 0000.0001) %MON trcstat_ptracer99_min        =   0.0000000000000000E+00
(PID.TID 0000.0001) %MON trcstat_ptracer99_mean       =   9.0645973213500968E-06
(PID.TID 0000.0001) %MON trcstat_ptracer99_sd         =   4.7421757996466035E-05
(PID.TID 0000.0001) %MON trcstat_ptracer99_del2       =   0.0000000000000000E+00
(PID.TID 0000.0001) %MON trcstat_ptracer0a_max        =   1.8148645194219297E-04
(PID.TID 0000.0001) %MON trcstat_ptracer0a_min        =   0.0000000000000000E+00
(PID.TID 0000.0001) %MON trcstat_ptracer0a_mean       =   4.2317465560252250E-06
(PID.TID 0000.0001) %MON trcstat_ptracer0a_sd         =   2.2364073618289956E-05
(PID.TID 0000.0001) %MON trcstat_ptracer0a_del2       =   0.0000000000000000E+00
(PID.TID 0000.0001) %MON trcstat_ptracer0b_max        =   1.7485251081442353E-04
(PID.TID 0000.0001) %MON trcstat_ptracer0b_min        =   0.0000000000000000E+00
(PID.TID 0000.0001) %MON trcstat_ptracer0b_mean       =   4.0084131874166353E-06
(PID.TID 0000.0001) %MON trcstat_ptracer0b_sd         =   2.1192948391581508E-05
(PID.TID 0000.0001) %MON trcstat_ptracer0b_del2       =   0.0000000000000000E+00
(PID.TID 0000.0001) %MON trcstat_ptracer0c_max        =   4.4800452295997117E-04
(PID.TID 0000.0001) %MON trcstat_ptracer0c_min        =   0.0000000000000000E+00
(PID.TID 0000.0001) %MON trcstat_ptracer0c_mean       =   1.1280626045708330E-05
(PID.TID 0000.0001) %MON trcstat_ptracer0c_sd         =   5.8938886804467422E-05
(PID.TID 0000.0001) %MON trcstat_ptracer0c_del2       =   0.0000000000000000E+00
(PID.TID 0000.0001) %MON trcstat_ptracer0d_max        =   1.6920767481192335E-04
(PID.TID 0000.0001) %MON trcstat_ptracer0d_min        =   0.0000000000000000E+00
(PID.TID 0000.0001) %MON trcstat_ptracer0d_mean       =   4.0901997211391154E-06
(PID.TID 0000.0001) %MON trcstat_ptracer0d_sd         =   2.1554891206203569E-05
(PID.TID 0000.0001) %MON trcstat_ptracer0d_del2       =   0.0000000000000000E+00
(PID.TID 0000.0001) %MON trcstat_ptracer0e_max        =   1.9670871793252555E-04
(PID.TID 0000.0001) %MON trcstat_ptracer0e_min        =   0.0000000000000000E+00
(PID.TID 0000.0001) %MON trcstat_ptracer0e_mean       =   4.5578983890615039E-06
(PID.TID 0000.0001) %MON trcstat_ptracer0e_sd         =   2.4096911598156785E-05
(PID.TID 0000.0001) %MON trcstat_ptracer0e_del2       =   0.0000000000000000E+00
(PID.TID 0000.0001) %MON trcstat_ptracer0f_max        =   1.2339818645426125E-04
(PID.TID 0000.0001) %MON trcstat_ptracer0f_min        =   0.0000000000000000E+00
(PID.TID 0000.0001) %MON trcstat_ptracer0f_mean       =   3.1027992426066748E-06
(PID.TID 0000.0001) %MON trcstat_ptracer0f_sd         =   1.6237637103593644E-05
(PID.TID 0000.0001) %MON trcstat_ptracer0f_del2       =   0.0000000000000000E+00
(PID.TID 0000.0001) %MON trcstat_ptracer0g_max        =   1.6577698304251921E-04
(PID.TID 0000.0001) %MON trcstat_ptracer0g_min        =   0.0000000000000000E+00
(PID.TID 0000.0001) %MON trcstat_ptracer0g_mean       =   3.7989564113555335E-06
(PID.TID 0000.0001) %MON trcstat_ptracer0g_sd         =   2.0077761407994811E-05
(PID.TID 0000.0001) %MON trcstat_ptracer0g_del2       =   0.0000000000000000E+00
(PID.TID 0000.0001) %MON trcstat_ptracer0h_max        =   1.3590513727732657E-04
(PID.TID 0000.0001) %MON trcstat_ptracer0h_min        =   0.0000000000000000E+00
(PID.TID 0000.0001) %MON trcstat_ptracer0h_mean       =   3.1585126223350030E-06
(PID.TID 0000.0001) %MON trcstat_ptracer0h_sd         =   1.6695706647870836E-05
(PID.TID 0000.0001) %MON trcstat_ptracer0h_del2       =   0.0000000000000000E+00
(PID.TID 0000.0001) %MON trcstat_ptracer0i_max        =   4.0572667501328981E-04
(PID.TID 0000.0001) %MON trcstat_ptracer0i_min        =   0.0000000000000000E+00
(PID.TID 0000.0001) %MON trcstat_ptracer0i_mean       =   1.0136376203353823E-05
(PID.TID 0000.0001) %MON trcstat_ptracer0i_sd         =   5.3107375128765404E-05
(PID.TID 0000.0001) %MON trcstat_ptracer0i_del2       =   0.0000000000000000E+00
(PID.TID 0000.0001) %MON trcstat_ptracer0j_max        =   1.2293140625535318E-04
(PID.TID 0000.0001) %MON trcstat_ptracer0j_min        =   0.0000000000000000E+00
(PID.TID 0000.0001) %MON trcstat_ptracer0j_mean       =   2.9202926659334386E-06
(PID.TID 0000.0001) %MON trcstat_ptracer0j_sd         =   1.5411758384704030E-05
(PID.TID 0000.0001) %MON trcstat_ptracer0j_del2       =   0.0000000000000000E+00
(PID.TID 0000.0001) %MON trcstat_ptracer0k_max        =   3.7578755287604712E-04
(PID.TID 0000.0001) %MON trcstat_ptracer0k_min        =   0.0000000000000000E+00
(PID.TID 0000.0001) %MON trcstat_ptracer0k_mean       =   9.4225855895851798E-06
(PID.TID 0000.0001) %MON trcstat_ptracer0k_sd         =   4.9340275562015594E-05
(PID.TID 0000.0001) %MON trcstat_ptracer0k_del2       =   0.0000000000000000E+00
(PID.TID 0000.0001) %MON trcstat_ptracer0l_max        =   3.8112741746677712E-04
(PID.TID 0000.0001) %MON trcstat_ptracer0l_min        =   0.0000000000000000E+00
(PID.TID 0000.0001) %MON trcstat_ptracer0l_mean       =   9.0883397891921580E-06
(PID.TID 0000.0001) %MON trcstat_ptracer0l_sd         =   4.7948693563528639E-05
(PID.TID 0000.0001) %MON trcstat_ptracer0l_del2       =   0.0000000000000000E+00
(PID.TID 0000.0001) %MON trcstat_ptracer0m_max        =   1.7922321202211043E-04
(PID.TID 0000.0001) %MON trcstat_ptracer0m_min        =   0.0000000000000000E+00
(PID.TID 0000.0001) %MON trcstat_ptracer0m_mean       =   4.1275273851863960E-06
(PID.TID 0000.0001) %MON trcstat_ptracer0m_sd         =   2.1826852698830342E-05
(PID.TID 0000.0001) %MON trcstat_ptracer0m_del2       =   0.0000000000000000E+00
(PID.TID 0000.0001) %MON trcstat_ptracer0n_max        =   1.0723569550204324E-04
(PID.TID 0000.0001) %MON trcstat_ptracer0n_min        =   0.0000000000000000E+00
(PID.TID 0000.0001) %MON trcstat_ptracer0n_mean       =   2.5583632821847111E-06
(PID.TID 0000.0001) %MON trcstat_ptracer0n_sd         =   1.3497005532864604E-05
(PID.TID 0000.0001) %MON trcstat_ptracer0n_del2       =   0.0000000000000000E+00
(PID.TID 0000.0001) %MON trcstat_ptracer0o_max        =   1.7203812195283488E-04
(PID.TID 0000.0001) %MON trcstat_ptracer0o_min        =   0.0000000000000000E+00
(PID.TID 0000.0001) %MON trcstat_ptracer0o_mean       =   4.3087534703325885E-06
(PID.TID 0000.0001) %MON trcstat_ptracer0o_sd         =   2.2566190868204485E-05
(PID.TID 0000.0001) %MON trcstat_ptracer0o_del2       =   0.0000000000000000E+00
(PID.TID 0000.0001) %MON trcstat_ptracer0p_max        =   1.9765247768359115E-04
(PID.TID 0000.0001) %MON trcstat_ptracer0p_min        =   0.0000000000000000E+00
(PID.TID 0000.0001) %MON trcstat_ptracer0p_mean       =   4.7761397960585823E-06
(PID.TID 0000.0001) %MON trcstat_ptracer0p_sd         =   2.5170448526243735E-05
(PID.TID 0000.0001) %MON trcstat_ptracer0p_del2       =   0.0000000000000000E+00
(PID.TID 0000.0001) %MON trcstat_ptracer0q_max        =   1.4861608618534509E-04
(PID.TID 0000.0001) %MON trcstat_ptracer0q_min        =   0.0000000000000000E+00
(PID.TID 0000.0001) %MON trcstat_ptracer0q_mean       =   3.6961077760809220E-06
(PID.TID 0000.0001) %MON trcstat_ptracer0q_sd         =   1.9379128844791466E-05
(PID.TID 0000.0001) %MON trcstat_ptracer0q_del2       =   0.0000000000000000E+00
(PID.TID 0000.0001) %MON trcstat_ptracer0r_max        =   1.3279896035695937E-04
(PID.TID 0000.0001) %MON trcstat_ptracer0r_min        =   0.0000000000000000E+00
(PID.TID 0000.0001) %MON trcstat_ptracer0r_mean       =   3.1437256316082014E-06
(PID.TID 0000.0001) %MON trcstat_ptracer0r_sd         =   1.6595521589618531E-05
(PID.TID 0000.0001) %MON trcstat_ptracer0r_del2       =   0.0000000000000000E+00
(PID.TID 0000.0001) %MON trcstat_ptracer0s_max        =   1.2341449986070772E-04
(PID.TID 0000.0001) %MON trcstat_ptracer0s_min        =   0.0000000000000000E+00
(PID.TID 0000.0001) %MON trcstat_ptracer0s_mean       =   2.8872431109192975E-06
(PID.TID 0000.0001) %MON trcstat_ptracer0s_sd         =   1.5255127934465978E-05
(PID.TID 0000.0001) %MON trcstat_ptracer0s_del2       =   0.0000000000000000E+00
(PID.TID 0000.0001) %MON trcstat_ptracer0t_max        =   3.3245571217644808E-04
(PID.TID 0000.0001) %MON trcstat_ptracer0t_min        =   0.0000000000000000E+00
(PID.TID 0000.0001) %MON trcstat_ptracer0t_mean       =   8.1428735371836914E-06
(PID.TID 0000.0001) %MON trcstat_ptracer0t_sd         =   4.2821406035218654E-05
(PID.TID 0000.0001) %MON trcstat_ptracer0t_del2       =   0.0000000000000000E+00
(PID.TID 0000.0001) %MON trcstat_ptracer0u_max        =   1.2246761075348779E-04
(PID.TID 0000.0001) %MON trcstat_ptracer0u_min        =   0.0000000000000000E+00
(PID.TID 0000.0001) %MON trcstat_ptracer0u_mean       =   2.8568797656733076E-06
(PID.TID 0000.0001) %MON trcstat_ptracer0u_sd         =   1.5097679864831166E-05
(PID.TID 0000.0001) %MON trcstat_ptracer0u_del2       =   0.0000000000000000E+00
(PID.TID 0000.0001) %MON trcstat_ptracer0v_max        =   4.3276901974268454E-04
(PID.TID 0000.0001) %MON trcstat_ptracer0v_min        =   0.0000000000000000E+00
(PID.TID 0000.0001) %MON trcstat_ptracer0v_mean       =   1.0889244967129816E-05
(PID.TID 0000.0001) %MON trcstat_ptracer0v_sd         =   5.6925841884303422E-05
(PID.TID 0000.0001) %MON trcstat_ptracer0v_del2       =   0.0000000000000000E+00
(PID.TID 0000.0001) %MON trcstat_ptracer0w_max        =   3.4668310946697349E-04
(PID.TID 0000.0001) %MON trcstat_ptracer0w_min        =   0.0000000000000000E+00
(PID.TID 0000.0001) %MON trcstat_ptracer0w_mean       =   8.5097925404770793E-06
(PID.TID 0000.0001) %MON trcstat_ptracer0w_sd         =   4.4728630665052146E-05
(PID.TID 0000.0001) %MON trcstat_ptracer0w_del2       =   0.0000000000000000E+00
(PID.TID 0000.0001) %MON trcstat_ptracer0x_max        =   3.4010835075399360E-04
(PID.TID 0000.0001) %MON trcstat_ptracer0x_min        =   0.0000000000000000E+00
(PID.TID 0000.0001) %MON trcstat_ptracer0x_mean       =   8.3700948978263401E-06
(PID.TID 0000.0001) %MON trcstat_ptracer0x_sd         =   4.3970091851638235E-05
(PID.TID 0000.0001) %MON trcstat_ptracer0x_del2       =   0.0000000000000000E+00
(PID.TID 0000.0001) %MON trcstat_ptracer0y_max        =   1.3210158746218543E-04
(PID.TID 0000.0001) %MON trcstat_ptracer0y_min        =   0.0000000000000000E+00
(PID.TID 0000.0001) %MON trcstat_ptracer0y_mean       =   3.2283800883114697E-06
(PID.TID 0000.0001) %MON trcstat_ptracer0y_sd         =   1.6986804584237847E-05
(PID.TID 0000.0001) %MON trcstat_ptracer0y_del2       =   0.0000000000000000E+00
(PID.TID 0000.0001) %MON trcstat_ptracer0z_max        =   3.4403979723006243E-04
(PID.TID 0000.0001) %MON trcstat_ptracer0z_min        =   0.0000000000000000E+00
(PID.TID 0000.0001) %MON trcstat_ptracer0z_mean       =   8.3823696197560383E-06
(PID.TID 0000.0001) %MON trcstat_ptracer0z_sd         =   4.4144594151510628E-05
(PID.TID 0000.0001) %MON trcstat_ptracer0z_del2       =   0.0000000000000000E+00
(PID.TID 0000.0001) %MON trcstat_ptracer0A_max        =   1.3043494697573567E-04
(PID.TID 0000.0001) %MON trcstat_ptracer0A_min        =   0.0000000000000000E+00
(PID.TID 0000.0001) %MON trcstat_ptracer0A_mean       =   3.2534988760171346E-06
(PID.TID 0000.0001) %MON trcstat_ptracer0A_sd         =   1.7050300342074024E-05
(PID.TID 0000.0001) %MON trcstat_ptracer0A_del2       =   0.0000000000000000E+00
(PID.TID 0000.0001) %MON trcstat_ptracer0B_max        =   3.6455485559393685E-04
(PID.TID 0000.0001) %MON trcstat_ptracer0B_min        =   0.0000000000000000E+00
(PID.TID 0000.0001) %MON trcstat_ptracer0B_mean       =   9.1145097034113843E-06
(PID.TID 0000.0001) %MON trcstat_ptracer0B_sd         =   4.7748038198732783E-05
(PID.TID 0000.0001) %MON trcstat_ptracer0B_del2       =   0.0000000000000000E+00
(PID.TID 0000.0001) %MON trcstat_ptracer0C_max        =   2.0425546274294357E-04
(PID.TID 0000.0001) %MON trcstat_ptracer0C_min        =   0.0000000000000000E+00
(PID.TID 0000.0001) %MON trcstat_ptracer0C_mean       =   4.9913788380718181E-06
(PID.TID 0000.0001) %MON trcstat_ptracer0C_sd         =   2.6263676103047940E-05
(PID.TID 0000.0001) %MON trcstat_ptracer0C_del2       =   0.0000000000000000E+00
(PID.TID 0000.0001) %MON trcstat_ptracer0D_max        =   1.5590806974767447E-04
(PID.TID 0000.0001) %MON trcstat_ptracer0D_min        =   0.0000000000000000E+00
(PID.TID 0000.0001) %MON trcstat_ptracer0D_mean       =   3.6161119405362067E-06
(PID.TID 0000.0001) %MON trcstat_ptracer0D_sd         =   1.9116793093620967E-05
(PID.TID 0000.0001) %MON trcstat_ptracer0D_del2       =   0.0000000000000000E+00
(PID.TID 0000.0001) %MON trcstat_ptracer0E_max        =   3.6680208040042054E-04
(PID.TID 0000.0001) %MON trcstat_ptracer0E_min        =   0.0000000000000000E+00
(PID.TID 0000.0001) %MON trcstat_ptracer0E_mean       =   8.9915340143949267E-06
(PID.TID 0000.0001) %MON trcstat_ptracer0E_sd         =   4.7275122728199020E-05
(PID.TID 0000.0001) %MON trcstat_ptracer0E_del2       =   0.0000000000000000E+00
(PID.TID 0000.0001) %MON trcstat_ptracer0F_max        =   1.9156704607654388E-04
(PID.TID 0000.0001) %MON trcstat_ptracer0F_min        =   0.0000000000000000E+00
(PID.TID 0000.0001) %MON trcstat_ptracer0F_mean       =   4.6280785651586932E-06
(PID.TID 0000.0001) %MON trcstat_ptracer0F_sd         =   2.4390608219981302E-05
(PID.TID 0000.0001) %MON trcstat_ptracer0F_del2       =   0.0000000000000000E+00
(PID.TID 0000.0001) %MON trcstat_ptracer0G_max        =   4.2226629897516003E-04
(PID.TID 0000.0001) %MON trcstat_ptracer0G_min        =   0.0000000000000000E+00
(PID.TID 0000.0001) %MON trcstat_ptracer0G_mean       =   1.0532087207091305E-05
(PID.TID 0000.0001) %MON trcstat_ptracer0G_sd         =   5.5195083497076579E-05
(PID.TID 0000.0001) %MON trcstat_ptracer0G_del2       =   0.0000000000000000E+00
(PID.TID 0000.0001) %MON trcstat_ptracer0H_max        =   3.1935766941789952E-04
(PID.TID 0000.0001) %MON trcstat_ptracer0H_min        =   0.0000000000000000E+00
(PID.TID 0000.0001) %MON trcstat_ptracer0H_mean       =   7.8494770928099256E-06
(PID.TID 0000.0001) %MON trcstat_ptracer0H_sd         =   4.1246049348800238E-05
(PID.TID 0000.0001) %MON trcstat_ptracer0H_del2       =   0.0000000000000000E+00
(PID.TID 0000.0001) %MON trcstat_ptracer0I_max        =   3.8177262266580900E-04
(PID.TID 0000.0001) %MON trcstat_ptracer0I_min        =   0.0000000000000000E+00
(PID.TID 0000.0001) %MON trcstat_ptracer0I_mean       =   9.6170804489242976E-06
(PID.TID 0000.0001) %MON trcstat_ptracer0I_sd         =   5.0233592514356865E-05
(PID.TID 0000.0001) %MON trcstat_ptracer0I_del2       =   0.0000000000000000E+00
(PID.TID 0000.0001) %MON trcstat_ptracer0J_max        =   1.7296255909543163E-04
(PID.TID 0000.0001) %MON trcstat_ptracer0J_min        =   0.0000000000000000E+00
(PID.TID 0000.0001) %MON trcstat_ptracer0J_mean       =   4.2357620154687372E-06
(PID.TID 0000.0001) %MON trcstat_ptracer0J_sd         =   2.2275643769847051E-05
(PID.TID 0000.0001) %MON trcstat_ptracer0J_del2       =   0.0000000000000000E+00
(PID.TID 0000.0001) %MON trcstat_ptracer0K_max        =   1.4025166589891092E-04
(PID.TID 0000.0001) %MON trcstat_ptracer0K_min        =   0.0000000000000000E+00
(PID.TID 0000.0001) %MON trcstat_ptracer0K_mean       =   3.3234568769309793E-06
(PID.TID 0000.0001) %MON trcstat_ptracer0K_sd         =   1.7542931104452707E-05
(PID.TID 0000.0001) %MON trcstat_ptracer0K_del2       =   0.0000000000000000E+00
(PID.TID 0000.0001) %MON trcstat_ptracer0L_max        =   3.2095426376894172E-04
(PID.TID 0000.0001) %MON trcstat_ptracer0L_min        =   0.0000000000000000E+00
(PID.TID 0000.0001) %MON trcstat_ptracer0L_mean       =   8.0567909586900821E-06
(PID.TID 0000.0001) %MON trcstat_ptracer0L_sd         =   4.2181390915988648E-05
(PID.TID 0000.0001) %MON trcstat_ptracer0L_del2       =   0.0000000000000000E+00
(PID.TID 0000.0001) %MON trcstat_ptracer0M_max        =   3.6358886385598851E-04
(PID.TID 0000.0001) %MON trcstat_ptracer0M_min        =   0.0000000000000000E+00
(PID.TID 0000.0001) %MON trcstat_ptracer0M_mean       =   9.1902758070481919E-06
(PID.TID 0000.0001) %MON trcstat_ptracer0M_sd         =   4.7932867050738154E-05
(PID.TID 0000.0001) %MON trcstat_ptracer0M_del2       =   0.0000000000000000E+00
(PID.TID 0000.0001) %MON trcstat_ptracer0N_max        =   1.5450996128556742E-04
(PID.TID 0000.0001) %MON trcstat_ptracer0N_min        =   0.0000000000000000E+00
(PID.TID 0000.0001) %MON trcstat_ptracer0N_mean       =   3.5456146881086878E-06
(PID.TID 0000.0001) %MON trcstat_ptracer0N_sd         =   1.8748671192653124E-05
(PID.TID 0000.0001) %MON trcstat_ptracer0N_del2       =   0.0000000000000000E+00
(PID.TID 0000.0001) %MON trcstat_ptracer0O_max        =   1.4906339705496237E-04
(PID.TID 0000.0001) %MON trcstat_ptracer0O_min        =   0.0000000000000000E+00
(PID.TID 0000.0001) %MON trcstat_ptracer0O_mean       =   3.5692381176252782E-06
(PID.TID 0000.0001) %MON trcstat_ptracer0O_sd         =   1.8824385636669999E-05
(PID.TID 0000.0001) %MON trcstat_ptracer0O_del2       =   0.0000000000000000E+00
(PID.TID 0000.0001) %MON trcstat_ptracer0P_max        =   2.3651256147527239E-04
(PID.TID 0000.0001) %MON trcstat_ptracer0P_min        =   0.0000000000000000E+00
(PID.TID 0000.0001) %MON trcstat_ptracer0P_mean       =   5.7672023288325195E-06
(PID.TID 0000.0001) %MON trcstat_ptracer0P_sd         =   3.0364708613890218E-05
(PID.TID 0000.0001) %MON trcstat_ptracer0P_del2       =   0.0000000000000000E+00
(PID.TID 0000.0001) %MON trcstat_ptracer0Q_max        =   3.8101916978760023E-04
(PID.TID 0000.0001) %MON trcstat_ptracer0Q_min        =   0.0000000000000000E+00
(PID.TID 0000.0001) %MON trcstat_ptracer0Q_mean       =   9.0907791212453196E-06
(PID.TID 0000.0001) %MON trcstat_ptracer0Q_sd         =   4.7959401044206293E-05
(PID.TID 0000.0001) %MON trcstat_ptracer0Q_del2       =   0.0000000000000000E+00
(PID.TID 0000.0001) %MON trcstat_ptracer0R_max        =   3.4283516024469706E-04
(PID.TID 0000.0001) %MON trcstat_ptracer0R_min        =   0.0000000000000000E+00
(PID.TID 0000.0001) %MON trcstat_ptracer0R_mean       =   8.3032254809314149E-06
(PID.TID 0000.0001) %MON trcstat_ptracer0R_sd         =   4.3749949854117924E-05
(PID.TID 0000.0001) %MON trcstat_ptracer0R_del2       =   0.0000000000000000E+00
(PID.TID 0000.0001) %MON trcstat_ptracer0S_max        =   1.0367215990913812E-04
(PID.TID 0000.0001) %MON trcstat_ptracer0S_min        =   0.0000000000000000E+00
(PID.TID 0000.0001) %MON trcstat_ptracer0S_mean       =   2.4838078499909640E-06
(PID.TID 0000.0001) %MON trcstat_ptracer0S_sd         =   1.3099131723465766E-05
(PID.TID 0000.0001) %MON trcstat_ptracer0S_del2       =   0.0000000000000000E+00
(PID.TID 0000.0001) %MON trcstat_ptracer0T_max        =   3.6669154109123962E-04
(PID.TID 0000.0001) %MON trcstat_ptracer0T_min        =   0.0000000000000000E+00
(PID.TID 0000.0001) %MON trcstat_ptracer0T_mean       =   9.2204674415676137E-06
(PID.TID 0000.0001) %MON trcstat_ptracer0T_sd         =   4.8249726248781333E-05
(PID.TID 0000.0001) %MON trcstat_ptracer0T_del2       =   0.0000000000000000E+00
(PID.TID 0000.0001) %MON trcstat_ptracer0U_max        =   3.5933430778664502E-04
(PID.TID 0000.0001) %MON trcstat_ptracer0U_min        =   0.0000000000000000E+00
(PID.TID 0000.0001) %MON trcstat_ptracer0U_mean       =   8.8276781886327178E-06
(PID.TID 0000.0001) %MON trcstat_ptracer0U_sd         =   4.6391052003865431E-05
(PID.TID 0000.0001) %MON trcstat_ptracer0U_del2       =   0.0000000000000000E+00
(PID.TID 0000.0001) %MON trcstat_ptracer0V_max        =   3.6366141636212223E-04
(PID.TID 0000.0001) %MON trcstat_ptracer0V_min        =   0.0000000000000000E+00
(PID.TID 0000.0001) %MON trcstat_ptracer0V_mean       =   8.7824386105527407E-06
(PID.TID 0000.0001) %MON trcstat_ptracer0V_sd         =   4.6286107628389786E-05
(PID.TID 0000.0001) %MON trcstat_ptracer0V_del2       =   0.0000000000000000E+00
(PID.TID 0000.0001) %MON trcstat_ptracer0W_max        =   4.7649807405316443E-04
(PID.TID 0000.0001) %MON trcstat_ptracer0W_min        =   0.0000000000000000E+00
(PID.TID 0000.0001) %MON trcstat_ptracer0W_mean       =   1.1985205119655844E-05
(PID.TID 0000.0001) %MON trcstat_ptracer0W_sd         =   6.2680381076073369E-05
(PID.TID 0000.0001) %MON trcstat_ptracer0W_del2       =   0.0000000000000000E+00
(PID.TID 0000.0001) %MON trcstat_ptracer0X_max        =   1.8124725826632504E-04
(PID.TID 0000.0001) %MON trcstat_ptracer0X_min        =   0.0000000000000000E+00
(PID.TID 0000.0001) %MON trcstat_ptracer0X_mean       =   4.4679509458858411E-06
(PID.TID 0000.0001) %MON trcstat_ptracer0X_sd         =   2.3463354616642263E-05
(PID.TID 0000.0001) %MON trcstat_ptracer0X_del2       =   0.0000000000000000E+00
(PID.TID 0000.0001) %MON trcstat_ptracer0Y_max        =   3.5522229608470139E-04
(PID.TID 0000.0001) %MON trcstat_ptracer0Y_min        =   0.0000000000000000E+00
(PID.TID 0000.0001) %MON trcstat_ptracer0Y_mean       =   8.9329643372343524E-06
(PID.TID 0000.0001) %MON trcstat_ptracer0Y_sd         =   4.6733229318480798E-05
(PID.TID 0000.0001) %MON trcstat_ptracer0Y_del2       =   0.0000000000000000E+00
(PID.TID 0000.0001) %MON trcstat_ptracer0Z_max        =   3.6735126982121390E-04
(PID.TID 0000.0001) %MON trcstat_ptracer0Z_min        =   0.0000000000000000E+00
(PID.TID 0000.0001) %MON trcstat_ptracer0Z_mean       =   9.0288205486238638E-06
(PID.TID 0000.0001) %MON trcstat_ptracer0Z_sd         =   4.7443378067117827E-05
(PID.TID 0000.0001) %MON trcstat_ptracer0Z_del2       =   0.0000000000000000E+00
(PID.TID 0000.0001) %MON trcstat_ptracer1a_max        =   1.4705990812646059E-04
(PID.TID 0000.0001) %MON trcstat_ptracer1a_min        =   0.0000000000000000E+00
(PID.TID 0000.0001) %MON trcstat_ptracer1a_mean       =   3.5571346132775679E-06
(PID.TID 0000.0001) %MON trcstat_ptracer1a_sd         =   1.8744674202818139E-05
(PID.TID 0000.0001) %MON trcstat_ptracer1a_del2       =   0.0000000000000000E+00
(PID.TID 0000.0001) %MON trcstat_ptracer1b_max        =   3.7493149471648344E-04
(PID.TID 0000.0001) %MON trcstat_ptracer1b_min        =   0.0000000000000000E+00
(PID.TID 0000.0001) %MON trcstat_ptracer1b_mean       =   9.1491312422159119E-06
(PID.TID 0000.0001) %MON trcstat_ptracer1b_sd         =   4.8160168696594006E-05
(PID.TID 0000.0001) %MON trcstat_ptracer1b_del2       =   0.0000000000000000E+00
(PID.TID 0000.0001) %MON trcstat_ptracer1c_max        =   3.1068932668742273E-04
(PID.TID 0000.0001) %MON trcstat_ptracer1c_min        =   0.0000000000000000E+00
(PID.TID 0000.0001) %MON trcstat_ptracer1c_mean       =   7.6153449952929273E-06
(PID.TID 0000.0001) %MON trcstat_ptracer1c_sd         =   4.0040312220906656E-05
(PID.TID 0000.0001) %MON trcstat_ptracer1c_del2       =   0.0000000000000000E+00
(PID.TID 0000.0001) %MON trcstat_ptracer1d_max        =   1.6995296213811616E-04
(PID.TID 0000.0001) %MON trcstat_ptracer1d_min        =   0.0000000000000000E+00
(PID.TID 0000.0001) %MON trcstat_ptracer1d_mean       =   3.8945653368150181E-06
(PID.TID 0000.0001) %MON trcstat_ptracer1d_sd         =   2.0587168745713838E-05
(PID.TID 0000.0001) %MON trcstat_ptracer1d_del2       =   0.0000000000000000E+00
(PID.TID 0000.0001) %MON trcstat_ptracer1e_max        =   1.9276611542795363E-04
(PID.TID 0000.0001) %MON trcstat_ptracer1e_min        =   0.0000000000000000E+00
(PID.TID 0000.0001) %MON trcstat_ptracer1e_mean       =   4.7487690162412947E-06
(PID.TID 0000.0001) %MON trcstat_ptracer1e_sd         =   2.4941327218478130E-05
(PID.TID 0000.0001) %MON trcstat_ptracer1e_del2       =   0.0000000000000000E+00
(PID.TID 0000.0001) %MON trcstat_ptracer1f_max        =   1.1830591332379993E-04
(PID.TID 0000.0001) %MON trcstat_ptracer1f_min        =   0.0000000000000000E+00
(PID.TID 0000.0001) %MON trcstat_ptracer1f_mean       =   2.8047163634387785E-06
(PID.TID 0000.0001) %MON trcstat_ptracer1f_sd         =   1.4804206826563479E-05
(PID.TID 0000.0001) %MON trcstat_ptracer1f_del2       =   0.0000000000000000E+00
(PID.TID 0000.0001) %MON trcstat_ptracer1g_max        =   4.7246862249653639E-04
(PID.TID 0000.0001) %MON trcstat_ptracer1g_min        =   0.0000000000000000E+00
(PID.TID 0000.0001) %MON trcstat_ptracer1g_mean       =   1.1864093251864942E-05
(PID.TID 0000.0001) %MON trcstat_ptracer1g_sd         =   6.2111559683841050E-05
(PID.TID 0000.0001) %MON trcstat_ptracer1g_del2       =   0.0000000000000000E+00
(PID.TID 0000.0001) %MON trcstat_ptracer1h_max        =   4.0424258876092816E-04
(PID.TID 0000.0001) %MON trcstat_ptracer1h_min        =   0.0000000000000000E+00
(PID.TID 0000.0001) %MON trcstat_ptracer1h_mean       =   1.0164309922828776E-05
(PID.TID 0000.0001) %MON trcstat_ptracer1h_sd         =   5.3197767846872577E-05
(PID.TID 0000.0001) %MON trcstat_ptracer1h_del2       =   0.0000000000000000E+00
(PID.TID 0000.0001) %MON trcstat_ptracer1i_max        =   1.6449487616112618E-04
(PID.TID 0000.0001) %MON trcstat_ptracer1i_min        =   0.0000000000000000E+00
(PID.TID 0000.0001) %MON trcstat_ptracer1i_mean       =   4.0790204355498988E-06
(PID.TID 0000.0001) %MON trcstat_ptracer1i_sd         =   2.1397498052094482E-05
(PID.TID 0000.0001) %MON trcstat_ptracer1i_del2       =   0.0000000000000000E+00
(PID.TID 0000.0001) %MON trcstat_ptracer1j_max        =   1.4461755413437704E-04
(PID.TID 0000.0001) %MON trcstat_ptracer1j_min        =   0.0000000000000000E+00
(PID.TID 0000.0001) %MON trcstat_ptracer1j_mean       =   3.4710223204570594E-06
(PID.TID 0000.0001) %MON trcstat_ptracer1j_sd         =   1.8302786113026567E-05
(PID.TID 0000.0001) %MON trcstat_ptracer1j_del2       =   0.0000000000000000E+00
(PID.TID 0000.0001) %MON trcstat_ptracer1k_max        =   1.6008154056167907E-04
(PID.TID 0000.0001) %MON trcstat_ptracer1k_min        =   0.0000000000000000E+00
(PID.TID 0000.0001) %MON trcstat_ptracer1k_mean       =   3.6728989465699877E-06
(PID.TID 0000.0001) %MON trcstat_ptracer1k_sd         =   1.9421481361181118E-05
(PID.TID 0000.0001) %MON trcstat_ptracer1k_del2       =   0.0000000000000000E+00
(PID.TID 0000.0001) %MON trcstat_ptracer1l_max        =   4.6221833589578701E-04
(PID.TID 0000.0001) %MON trcstat_ptracer1l_min        =   0.0000000000000000E+00
(PID.TID 0000.0001) %MON trcstat_ptracer1l_mean       =   1.1528070739884330E-05
(PID.TID 0000.0001) %MON trcstat_ptracer1l_sd         =   6.0415106529701764E-05
(PID.TID 0000.0001) %MON trcstat_ptracer1l_del2       =   0.0000000000000000E+00
(PID.TID 0000.0001) %MON trcstat_ptracer1m_max        =   3.3423177915588114E-04
(PID.TID 0000.0001) %MON trcstat_ptracer1m_min        =   0.0000000000000000E+00
(PID.TID 0000.0001) %MON trcstat_ptracer1m_mean       =   8.3113506654069941E-06
(PID.TID 0000.0001) %MON trcstat_ptracer1m_sd         =   4.3578310629072162E-05
(PID.TID 0000.0001) %MON trcstat_ptracer1m_del2       =   0.0000000000000000E+00
[...]
(PID.TID 0000.0001) %MON trcstat_ptracer0A_del2       =   0.0000000000000000E+00
(PID.TID 0000.0001) %MON trcstat_ptracer0B_max        =   3.5548557511802650E-04
(PID.TID 0000.0001) %MON trcstat_ptracer0B_min        =   1.0597033411897019E-27
(PID.TID 0000.0001) %MON trcstat_ptracer0B_mean       =   8.8887750434167052E-06
(PID.TID 0000.0001) %MON trcstat_ptracer0B_sd         =   4.6552929546498616E-05
(PID.TID 0000.0001) %MON trcstat_ptracer0B_del2       =   0.0000000000000000E+00
(PID.TID 0000.0001) %MON trcstat_ptracer0C_max        =   1.9974518364002816E-04
(PID.TID 0000.0001) %MON trcstat_ptracer0C_min        =   5.3783883981197654E-36
(PID.TID 0000.0001) %MON trcstat_ptracer0C_mean       =   4.8898389912676385E-06
(PID.TID 0000.0001) %MON trcstat_ptracer0C_sd         =   2.5708485947937497E-05
(PID.TID 0000.0001) %MON trcstat_ptracer0C_del2       =   0.0000000000000000E+00
(PID.TID 0000.0001) %MON trcstat_ptracer0D_max        =   1.5488963408397553E-04
(PID.TID 0000.0001) %MON trcstat_ptracer0D_min        =   5.0841148157005552E-36
(PID.TID 0000.0001) %MON trcstat_ptracer0D_mean       =   3.5670355947138481E-06
(PID.TID 0000.0001) %MON trcstat_ptracer0D_sd         =   1.8890434141236812E-05
(PID.TID 0000.0001) %MON trcstat_ptracer0D_del2       =   0.0000000000000000E+00
(PID.TID 0000.0001) %MON trcstat_ptracer0E_max        =   3.5759197350853001E-04
(PID.TID 0000.0001) %MON trcstat_ptracer0E_min        =   1.1665637967688345E-27
(PID.TID 0000.0001) %MON trcstat_ptracer0E_mean       =   8.7690380261527462E-06
(PID.TID 0000.0001) %MON trcstat_ptracer0E_sd         =   4.6091501959976788E-05
(PID.TID 0000.0001) %MON trcstat_ptracer0E_del2       =   0.0000000000000000E+00
(PID.TID 0000.0001) %MON trcstat_ptracer0F_max        =   1.8678834951565035E-04
(PID.TID 0000.0001) %MON trcstat_ptracer0F_min        =   5.3036470486891177E-36
(PID.TID 0000.0001) %MON trcstat_ptracer0F_mean       =   4.5134572603006040E-06
(PID.TID 0000.0001) %MON trcstat_ptracer0F_sd         =   2.3784962268223367E-05
(PID.TID 0000.0001) %MON trcstat_ptracer0F_del2       =   0.0000000000000000E+00
(PID.TID 0000.0001) %MON trcstat_ptracer0G_max        =   4.1750394376547826E-04
(PID.TID 0000.0001) %MON trcstat_ptracer0G_min        =   1.2375085969862802E-27
(PID.TID 0000.0001) %MON trcstat_ptracer0G_mean       =   1.0405788774688910E-05
(PID.TID 0000.0001) %MON trcstat_ptracer0G_sd         =   5.4525161605563916E-05
(PID.TID 0000.0001) %MON trcstat_ptracer0G_del2       =   0.0000000000000000E+00
(PID.TID 0000.0001) %MON trcstat_ptracer0H_max        =   3.1135176765173923E-04
(PID.TID 0000.0001) %MON trcstat_ptracer0H_min        =   9.9877027268791798E-28
(PID.TID 0000.0001) %MON trcstat_ptracer0H_mean       =   7.6550729488642348E-06
(PID.TID 0000.0001) %MON trcstat_ptracer0H_sd         =   4.0213451658410422E-05
(PID.TID 0000.0001) %MON trcstat_ptracer0H_del2       =   0.0000000000000000E+00
(PID.TID 0000.0001) %MON trcstat_ptracer0I_max        =   3.7805690268542244E-04
(PID.TID 0000.0001) %MON trcstat_ptracer0I_min        =   1.0335918089159752E-27
(PID.TID 0000.0001) %MON trcstat_ptracer0I_mean       =   9.5415898978092726E-06
(PID.TID 0000.0001) %MON trcstat_ptracer0I_sd         =   4.9862497458028835E-05
(PID.TID 0000.0001) %MON trcstat_ptracer0I_del2       =   0.0000000000000000E+00
(PID.TID 0000.0001) %MON trcstat_ptracer0J_max        =   1.7203097452386942E-04
(PID.TID 0000.0001) %MON trcstat_ptracer0J_min        =   4.4782204031535185E-36
(PID.TID 0000.0001) %MON trcstat_ptracer0J_mean       =   4.1949579045852348E-06
(PID.TID 0000.0001) %MON trcstat_ptracer0J_sd         =   2.2092645162411384E-05
(PID.TID 0000.0001) %MON trcstat_ptracer0J_del2       =   0.0000000000000000E+00
(PID.TID 0000.0001) %MON trcstat_ptracer0K_max        =   1.3675224155933701E-04
(PID.TID 0000.0001) %MON trcstat_ptracer0K_min        =   4.1188693948520357E-36
(PID.TID 0000.0001) %MON trcstat_ptracer0K_mean       =   3.2411465154081412E-06
(PID.TID 0000.0001) %MON trcstat_ptracer0K_sd         =   1.7107283248532801E-05
(PID.TID 0000.0001) %MON trcstat_ptracer0K_del2       =   0.0000000000000000E+00
(PID.TID 0000.0001) %MON trcstat_ptracer0L_max        =   3.1786684488386110E-04
(PID.TID 0000.0001) %MON trcstat_ptracer0L_min        =   9.2120047597398865E-28
(PID.TID 0000.0001) %MON trcstat_ptracer0L_mean       =   7.9683399055167450E-06
(PID.TID 0000.0001) %MON trcstat_ptracer0L_sd         =   4.1719185803691238E-05
(PID.TID 0000.0001) %MON trcstat_ptracer0L_del2       =   0.0000000000000000E+00
(PID.TID 0000.0001) %MON trcstat_ptracer0M_max        =   3.5423169058342393E-04
(PID.TID 0000.0001) %MON trcstat_ptracer0M_min        =   9.4993993329547121E-28
(PID.TID 0000.0001) %MON trcstat_ptracer0M_mean       =   8.9626646014573770E-06
(PID.TID 0000.0001) %MON trcstat_ptracer0M_sd         =   4.6733331024315626E-05
(PID.TID 0000.0001) %MON trcstat_ptracer0M_del2       =   0.0000000000000000E+00
(PID.TID 0000.0001) %MON trcstat_ptracer0N_max        =   1.5065341092932981E-04
(PID.TID 0000.0001) %MON trcstat_ptracer0N_min        =   5.6808605490770599E-36
(PID.TID 0000.0001) %MON trcstat_ptracer0N_mean       =   3.4578023710850569E-06
(PID.TID 0000.0001) %MON trcstat_ptracer0N_sd         =   1.8282992474633864E-05
(PID.TID 0000.0001) %MON trcstat_ptracer0N_del2       =   0.0000000000000000E+00
(PID.TID 0000.0001) %MON trcstat_ptracer0O_max        =   1.4802360554984692E-04
(PID.TID 0000.0001) %MON trcstat_ptracer0O_min        =   4.2306970041015135E-36
(PID.TID 0000.0001) %MON trcstat_ptracer0O_mean       =   3.5306735479165026E-06
(PID.TID 0000.0001) %MON trcstat_ptracer0O_sd         =   1.8629398932672077E-05
(PID.TID 0000.0001) %MON trcstat_ptracer0O_del2       =   0.0000000000000000E+00
(PID.TID 0000.0001) %MON trcstat_ptracer0P_max        =   2.3435365790979088E-04
(PID.TID 0000.0001) %MON trcstat_ptracer0P_min        =   6.3578865089445135E-36
(PID.TID 0000.0001) %MON trcstat_ptracer0P_mean       =   5.6850606568575357E-06
(PID.TID 0000.0001) %MON trcstat_ptracer0P_sd         =   2.9966530629984902E-05
(PID.TID 0000.0001) %MON trcstat_ptracer0P_del2       =   0.0000000000000000E+00
(PID.TID 0000.0001) %MON trcstat_ptracer0Q_max        =   3.7145861640645997E-04
(PID.TID 0000.0001) %MON trcstat_ptracer0Q_min        =   1.3521901245504094E-27
(PID.TID 0000.0001) %MON trcstat_ptracer0Q_mean       =   8.8656323982897296E-06
(PID.TID 0000.0001) %MON trcstat_ptracer0Q_sd         =   4.6758216665613167E-05
(PID.TID 0000.0001) %MON trcstat_ptracer0Q_del2       =   0.0000000000000000E+00
(PID.TID 0000.0001) %MON trcstat_ptracer0R_max        =   3.3718848063864237E-04
(PID.TID 0000.0001) %MON trcstat_ptracer0R_min        =   1.1664224597718696E-27
(PID.TID 0000.0001) %MON trcstat_ptracer0R_mean       =   8.1568623639116774E-06
(PID.TID 0000.0001) %MON trcstat_ptracer0R_sd         =   4.2933451540409884E-05
(PID.TID 0000.0001) %MON trcstat_ptracer0R_del2       =   0.0000000000000000E+00
(PID.TID 0000.0001) %MON trcstat_ptracer0S_max        =   1.0108577183041715E-04
(PID.TID 0000.0001) %MON trcstat_ptracer0S_min        =   2.9373563293921238E-36
(PID.TID 0000.0001) %MON trcstat_ptracer0S_mean       =   2.4222926343068833E-06
(PID.TID 0000.0001) %MON trcstat_ptracer0S_sd         =   1.2773853936997212E-05
(PID.TID 0000.0001) %MON trcstat_ptracer0S_del2       =   0.0000000000000000E+00
(PID.TID 0000.0001) %MON trcstat_ptracer0T_max        =   3.6175854439189132E-04
(PID.TID 0000.0001) %MON trcstat_ptracer0T_min        =   1.0400599200713650E-27
(PID.TID 0000.0001) %MON trcstat_ptracer0T_mean       =   9.1016264984162790E-06
(PID.TID 0000.0001) %MON trcstat_ptracer0T_sd         =   4.7626634520008152E-05
(PID.TID 0000.0001) %MON trcstat_ptracer0T_del2       =   0.0000000000000000E+00
(PID.TID 0000.0001) %MON trcstat_ptracer0U_max        =   3.5032367204084630E-04
(PID.TID 0000.0001) %MON trcstat_ptracer0U_min        =   1.1270935605387229E-27
(PID.TID 0000.0001) %MON trcstat_ptracer0U_mean       =   8.6094562977387767E-06
(PID.TID 0000.0001) %MON trcstat_ptracer0U_sd         =   4.5229603829284551E-05
(PID.TID 0000.0001) %MON trcstat_ptracer0U_del2       =   0.0000000000000000E+00
(PID.TID 0000.0001) %MON trcstat_ptracer0V_max        =   3.5656026179961829E-04
(PID.TID 0000.0001) %MON trcstat_ptracer0V_min        =   1.2463920541894191E-27
(PID.TID 0000.0001) %MON trcstat_ptracer0V_mean       =   8.6119101555462136E-06
(PID.TID 0000.0001) %MON trcstat_ptracer0V_sd         =   4.5327753384700784E-05
(PID.TID 0000.0001) %MON trcstat_ptracer0V_del2       =   0.0000000000000000E+00
(PID.TID 0000.0001) %MON trcstat_ptracer0W_max        =   4.6416071642825112E-04
(PID.TID 0000.0001) %MON trcstat_ptracer0W_min        =   1.3307418210593184E-27
(PID.TID 0000.0001) %MON trcstat_ptracer0W_mean       =   1.1688373290662953E-05
(PID.TID 0000.0001) %MON trcstat_ptracer0W_sd         =   6.1111663481325725E-05
(PID.TID 0000.0001) %MON trcstat_ptracer0W_del2       =   0.0000000000000000E+00
(PID.TID 0000.0001) %MON trcstat_ptracer0X_max        =   1.7982243937969566E-04
(PID.TID 0000.0001) %MON trcstat_ptracer0X_min        =   4.5107148050781741E-36
(PID.TID 0000.0001) %MON trcstat_ptracer0X_mean       =   4.4175780331951972E-06
(PID.TID 0000.0001) %MON trcstat_ptracer0X_sd         =   2.3231762390690602E-05
(PID.TID 0000.0001) %MON trcstat_ptracer0X_del2       =   0.0000000000000000E+00
(PID.TID 0000.0001) %MON trcstat_ptracer0Y_max        =   3.5134937938010273E-04
(PID.TID 0000.0001) %MON trcstat_ptracer0Y_min        =   1.0006806798880081E-27
(PID.TID 0000.0001) %MON trcstat_ptracer0Y_mean       =   8.8481440635139723E-06
(PID.TID 0000.0001) %MON trcstat_ptracer0Y_sd         =   4.6308182303795179E-05
(PID.TID 0000.0001) %MON trcstat_ptracer0Y_del2       =   0.0000000000000000E+00
(PID.TID 0000.0001) %MON trcstat_ptracer0Z_max        =   3.6220065581471576E-04
(PID.TID 0000.0001) %MON trcstat_ptracer0Z_min        =   1.1490817229291060E-27
(PID.TID 0000.0001) %MON trcstat_ptracer0Z_mean       =   8.9045122957242744E-06
(PID.TID 0000.0001) %MON trcstat_ptracer0Z_sd         =   4.6771894537320556E-05
(PID.TID 0000.0001) %MON trcstat_ptracer0Z_del2       =   0.0000000000000000E+00
(PID.TID 0000.0001) %MON trcstat_ptracer1a_max        =   1.4339151315758732E-04
(PID.TID 0000.0001) %MON trcstat_ptracer1a_min        =   4.0587414064618019E-36
(PID.TID 0000.0001) %MON trcstat_ptracer1a_mean       =   3.4693980151587864E-06
(PID.TID 0000.0001) %MON trcstat_ptracer1a_sd         =   1.8280352856759946E-05
(PID.TID 0000.0001) %MON trcstat_ptracer1a_del2       =   0.0000000000000000E+00
(PID.TID 0000.0001) %MON trcstat_ptracer1b_max        =   3.7136845434268941E-04
(PID.TID 0000.0001) %MON trcstat_ptracer1b_min        =   1.2371058693843934E-27
(PID.TID 0000.0001) %MON trcstat_ptracer1b_mean       =   9.0576519247589256E-06
(PID.TID 0000.0001) %MON trcstat_ptracer1b_sd         =   4.7677014932321504E-05
(PID.TID 0000.0001) %MON trcstat_ptracer1b_del2       =   0.0000000000000000E+00
(PID.TID 0000.0001) %MON trcstat_ptracer1c_max        =   3.0579418635057654E-04
(PID.TID 0000.0001) %MON trcstat_ptracer1c_min        =   9.8870450410415485E-28
(PID.TID 0000.0001) %MON trcstat_ptracer1c_mean       =   7.5007257723979055E-06
(PID.TID 0000.0001) %MON trcstat_ptracer1c_sd         =   3.9417498135047926E-05
(PID.TID 0000.0001) %MON trcstat_ptracer1c_del2       =   0.0000000000000000E+00
(PID.TID 0000.0001) %MON trcstat_ptracer1d_max        =   1.6571098083908967E-04
(PID.TID 0000.0001) %MON trcstat_ptracer1d_min        =   6.6316080236256153E-36
(PID.TID 0000.0001) %MON trcstat_ptracer1d_mean       =   3.7981107743305415E-06
(PID.TID 0000.0001) %MON trcstat_ptracer1d_sd         =   2.0075811617071873E-05
(PID.TID 0000.0001) %MON trcstat_ptracer1d_del2       =   0.0000000000000000E+00
(PID.TID 0000.0001) %MON trcstat_ptracer1e_max        =   1.9110792897812041E-04
(PID.TID 0000.0001) %MON trcstat_ptracer1e_min        =   4.8137774260921587E-36
(PID.TID 0000.0001) %MON trcstat_ptracer1e_mean       =   4.6840918302856889E-06
(PID.TID 0000.0001) %MON trcstat_ptracer1e_sd         =   2.4654101715574539E-05
(PID.TID 0000.0001) %MON trcstat_ptracer1e_del2       =   0.0000000000000000E+00
(PID.TID 0000.0001) %MON trcstat_ptracer1f_max        =   1.1535407456595007E-04
(PID.TID 0000.0001) %MON trcstat_ptracer1f_min        =   3.4686031669853011E-36
(PID.TID 0000.0001) %MON trcstat_ptracer1f_mean       =   2.7352533820823494E-06
(PID.TID 0000.0001) %MON trcstat_ptracer1f_sd         =   1.4436571160031750E-05
(PID.TID 0000.0001) %MON trcstat_ptracer1f_del2       =   0.0000000000000000E+00
(PID.TID 0000.0001) %MON trcstat_ptracer1g_max        =   4.6073294187166068E-04
(PID.TID 0000.0001) %MON trcstat_ptracer1g_min        =   1.3547389059776676E-27
(PID.TID 0000.0001) %MON trcstat_ptracer1g_mean       =   1.1570260966235466E-05
(PID.TID 0000.0001) %MON trcstat_ptracer1g_sd         =   6.0556998066468238E-05
(PID.TID 0000.0001) %MON trcstat_ptracer1g_del2       =   0.0000000000000000E+00
(PID.TID 0000.0001) %MON trcstat_ptracer1h_max        =   3.9396190341876050E-04
(PID.TID 0000.0001) %MON trcstat_ptracer1h_min        =   1.1517884092610286E-27
(PID.TID 0000.0001) %MON trcstat_ptracer1h_mean       =   9.9125753489304154E-06
(PID.TID 0000.0001) %MON trcstat_ptracer1h_sd         =   5.1866325388847520E-05
(PID.TID 0000.0001) %MON trcstat_ptracer1h_del2       =   0.0000000000000000E+00
(PID.TID 0000.0001) %MON trcstat_ptracer1i_max        =   1.6041075317712808E-04
(PID.TID 0000.0001) %MON trcstat_ptracer1i_min        =   3.9847574662665731E-36
(PID.TID 0000.0001) %MON trcstat_ptracer1i_mean       =   3.9796953336700802E-06
(PID.TID 0000.0001) %MON trcstat_ptracer1i_sd         =   2.0868574450062074E-05
(PID.TID 0000.0001) %MON trcstat_ptracer1i_del2       =   0.0000000000000000E+00
(PID.TID 0000.0001) %MON trcstat_ptracer1j_max        =   1.4100974727704311E-04
(PID.TID 0000.0001) %MON trcstat_ptracer1j_min        =   4.0760721663506667E-36
(PID.TID 0000.0001) %MON trcstat_ptracer1j_mean       =   3.3850572595637310E-06
(PID.TID 0000.0001) %MON trcstat_ptracer1j_sd         =   1.7848294703170588E-05
(PID.TID 0000.0001) %MON trcstat_ptracer1j_del2       =   0.0000000000000000E+00
(PID.TID 0000.0001) %MON trcstat_ptracer1k_max        =   1.5608592181846868E-04
(PID.TID 0000.0001) %MON trcstat_ptracer1k_min        =   5.9079679049066734E-36
(PID.TID 0000.0001) %MON trcstat_ptracer1k_mean       =   3.5819342441975172E-06
(PID.TID 0000.0001) %MON trcstat_ptracer1k_sd         =   1.8939090477782865E-05
(PID.TID 0000.0001) %MON trcstat_ptracer1k_del2       =   0.0000000000000000E+00
(PID.TID 0000.0001) %MON trcstat_ptracer1l_max        =   4.5070879418049504E-04
(PID.TID 0000.0001) %MON trcstat_ptracer1l_min        =   1.3547961289818594E-27
(PID.TID 0000.0001) %MON trcstat_ptracer1l_mean       =   1.1242560589777585E-05
(PID.TID 0000.0001) %MON trcstat_ptracer1l_sd         =   5.8902911650337306E-05
(PID.TID 0000.0001) %MON trcstat_ptracer1l_del2       =   0.0000000000000000E+00
(PID.TID 0000.0001) %MON trcstat_ptracer1m_max        =   3.2606738120297211E-04
(PID.TID 0000.0001) %MON trcstat_ptracer1m_min        =   9.9027820044218271E-28
(PID.TID 0000.0001) %MON trcstat_ptracer1m_mean       =   8.1238025539343962E-06
(PID.TID 0000.0001) %MON trcstat_ptracer1m_sd         =   4.2538849433078650E-05
(PID.TID 0000.0001) %MON trcstat_ptracer1m_del2       =   0.0000000000000000E+00
(PID.TID 0000.0001) %MON trcstat_ptracer1n_max        =   3.6383195596487991E-04
(PID.TID 0000.0001) %MON trcstat_ptracer1n_min        =   1.2790389888127526E-27
(PID.TID 0000.0001) %MON trcstat_ptracer1n_mean       =   8.7890149265360696E-06
(PID.TID 0000.0001) %MON trcstat_ptracer1n_sd         =   4.6304794741006683E-05
(PID.TID 0000.0001) %MON trcstat_ptracer1n_del2       =   0.0000000000000000E+00
(PID.TID 0000.0001) %MON trcstat_ptracer1o_max        =   3.5818212034188085E-04
(PID.TID 0000.0001) %MON trcstat_ptracer1o_min        =   1.2393189595131165E-27
(PID.TID 0000.0001) %MON trcstat_ptracer1o_mean       =   8.7065615454736011E-06
(PID.TID 0000.0001) %MON trcstat_ptracer1o_sd         =   4.5848864803758572E-05
(PID.TID 0000.0001) %MON trcstat_ptracer1o_del2       =   0.0000000000000000E+00
(PID.TID 0000.0001) %MON trcstat_ptracer1p_max        =   3.0785924418206179E-04
(PID.TID 0000.0001) %MON trcstat_ptracer1p_min        =   9.3373970572779978E-28
(PID.TID 0000.0001) %MON trcstat_ptracer1p_mean       =   7.6404077498200090E-06
(PID.TID 0000.0001) %MON trcstat_ptracer1p_sd         =   4.0054238821612612E-05
(PID.TID 0000.0001) %MON trcstat_ptracer1p_del2       =   0.0000000000000000E+00
(PID.TID 0000.0001) %MON trcstat_ptracer1q_max        =   1.7822067260503499E-04
(PID.TID 0000.0001) %MON trcstat_ptracer1q_min        =   4.2432432046987583E-36
(PID.TID 0000.0001) %MON trcstat_ptracer1q_mean       =   4.4261671984316013E-06
(PID.TID 0000.0001) %MON trcstat_ptracer1q_sd         =   2.3224082589386786E-05
(PID.TID 0000.0001) %MON trcstat_ptracer1q_del2       =   0.0000000000000000E+00
(PID.TID 0000.0001) %MON trcstat_ptracer1r_max        =   1.6177823376130530E-04
(PID.TID 0000.0001) %MON trcstat_ptracer1r_min        =   4.3453759757372404E-36
(PID.TID 0000.0001) %MON trcstat_ptracer1r_mean       =   3.9561372208201227E-06
(PID.TID 0000.0001) %MON trcstat_ptracer1r_sd         =   2.0811636726305993E-05
(PID.TID 0000.0001) %MON trcstat_ptracer1r_del2       =   0.0000000000000000E+00
(PID.TID 0000.0001) %MON trcstat_ptracer1s_max        =   3.4043504745454088E-04
(PID.TID 0000.0001) %MON trcstat_ptracer1s_min        =   8.8196346490570856E-28
(PID.TID 0000.0001) %MON trcstat_ptracer1s_mean       =   8.6598996549225770E-06
(PID.TID 0000.0001) %MON trcstat_ptracer1s_sd         =   4.5081494574229658E-05
(PID.TID 0000.0001) %MON trcstat_ptracer1s_del2       =   0.0000000000000000E+00
(PID.TID 0000.0001) %MON trcstat_ptracer1t_max        =   1.5516348078347322E-04
(PID.TID 0000.0001) %MON trcstat_ptracer1t_min        =   5.7822822828742259E-36
(PID.TID 0000.0001) %MON trcstat_ptracer1t_mean       =   3.5634940491926722E-06
(PID.TID 0000.0001) %MON trcstat_ptracer1t_sd         =   1.8841268066048337E-05
(PID.TID 0000.0001) %MON trcstat_ptracer1t_del2       =   0.0000000000000000E+00
(PID.TID 0000.0001) %MON trcstat_ptracer1u_max        =   1.9734839782306347E-04
(PID.TID 0000.0001) %MON trcstat_ptracer1u_min        =   6.0040104874005681E-36
(PID.TID 0000.0001) %MON trcstat_ptracer1u_mean       =   4.6126837590133687E-06
(PID.TID 0000.0001) %MON trcstat_ptracer1u_sd         =   2.4395035911788872E-05
(PID.TID 0000.0001) %MON trcstat_ptracer1u_del2       =   0.0000000000000000E+00
(PID.TID 0000.0001) %MON trcstat_ptracer1v_max        =   1.8002454455918009E-04
(PID.TID 0000.0001) %MON trcstat_ptracer1v_min        =   5.9836789442561144E-36
(PID.TID 0000.0001) %MON trcstat_ptracer1v_mean       =   4.1817529537367368E-06
(PID.TID 0000.0001) %MON trcstat_ptracer1v_sd         =   2.2098661487345633E-05
(PID.TID 0000.0001) %MON trcstat_ptracer1v_del2       =   0.0000000000000000E+00
(PID.TID 0000.0001) %MON trcstat_ptracer1w_max        =   2.2894517286623767E-04
(PID.TID 0000.0001) %MON trcstat_ptracer1w_min        =   6.1640258118307638E-36
(PID.TID 0000.0001) %MON trcstat_ptracer1w_mean       =   5.5598531155207196E-06
(PID.TID 0000.0001) %MON trcstat_ptracer1w_sd         =   2.9321840563097946E-05
(PID.TID 0000.0001) %MON trcstat_ptracer1w_del2       =   0.0000000000000000E+00
(PID.TID 0000.0001) %MON trcstat_ptracer1x_max        =   1.4943611008686716E-04
(PID.TID 0000.0001) %MON trcstat_ptracer1x_min        =   4.6939243704156489E-36
(PID.TID 0000.0001) %MON trcstat_ptracer1x_mean       =   3.5055106742452119E-06
(PID.TID 0000.0001) %MON trcstat_ptracer1x_sd         =   1.8517184860405747E-05
(PID.TID 0000.0001) %MON trcstat_ptracer1x_del2       =   0.0000000000000000E+00
