(PID.TID 0000.0001) %MON XC_max                       =   5.0000000000000000E-01
(PID.TID 0000.0001) %MON XC_min                       =   5.0000000000000000E-01
(PID.TID 0000.0001) %MON XC_mean                      =   5.0000000000000000E-01
(PID.TID 0000.0001) %MON XC_sd                        =   0.0000000000000000E+00
(PID.TID 0000.0001) %MON XG_max                       =   0.0000000000000000E+00
(PID.TID 0000.0001) %MON XG_min                       =   0.0000000000000000E+00
(PID.TID 0000.0001) %MON XG_mean                      =   0.0000000000000000E+00
(PID.TID 0000.0001) %MON XG_sd                        =   0.0000000000000000E+00
(PID.TID 0000.0001) %MON DXC_max                      =   7.9297382804168723E+04
(PID.TID 0000.0001) %MON DXC_min                      =   7.9297382804168723E+04
(PID.TID 0000.0001) %MON DXC_mean                     =   7.9297382804168723E+04
(PID.TID 0000.0001) %MON DXC_sd                       =   0.0000000000000000E+00
(PID.TID 0000.0001) %MON DXF_max                      =   7.9297382804168723E+04
(PID.TID 0000.0001) %MON DXF_min                      =   7.9297382804168723E+04
(PID.TID 0000.0001) %MON DXF_mean                     =   7.9297382804168723E+04
(PID.TID 0000.0001) %MON DXF_sd                       =   0.0000000000000000E+00
(PID.TID 0000.0001) %MON DXG_max                      =   7.8614345322413312E+04
(PID.TID 0000.0001) %MON DXG_min                      =   7.8614345322413312E+04
(PID.TID 0000.0001) %MON DXG_mean                     =   7.8614345322413312E+04
(PID.TID 0000.0001) %MON DXG_sd                       =   0.0000000000000000E+00
(PID.TID 0000.0001) %MON DXV_max                      =   7.8614345322413312E+04
(PID.TID 0000.0001) %MON DXV_min                      =   7.8614345322413312E+04
(PID.TID 0000.0001) %MON DXV_mean                     =   7.8614345322413312E+04
(PID.TID 0000.0001) %MON DXV_sd                       =   0.0000000000000000E+00
(PID.TID 0000.0001) %MON YC_max                       =  -4.4500000000000000E+01
(PID.TID 0000.0001) %MON YC_min                       =  -4.4500000000000000E+01
(PID.TID 0000.0001) %MON YC_mean                      =  -4.4500000000000000E+01
(PID.TID 0000.0001) %MON YC_sd                        =   0.0000000000000000E+00
(PID.TID 0000.0001) %MON YG_max                       =  -4.5000000000000000E+01
(PID.TID 0000.0001) %MON YG_min                       =  -4.5000000000000000E+01
(PID.TID 0000.0001) %MON YG_mean                      =  -4.5000000000000000E+01
(PID.TID 0000.0001) %MON YG_sd                        =   0.0000000000000000E+00
(PID.TID 0000.0001) %MON DYC_max                      =   1.1117747335203880E+05
(PID.TID 0000.0001) %MON DYC_min                      =   1.1117747335203880E+05
(PID.TID 0000.0001) %MON DYC_mean                     =   1.1117747335203880E+05
(PID.TID 0000.0001) %MON DYC_sd                       =   0.0000000000000000E+00
(PID.TID 0000.0001) %MON DYF_max                      =   1.1117747335203880E+05
(PID.TID 0000.0001) %MON DYF_min                      =   1.1117747335203880E+05
(PID.TID 0000.0001) %MON DYF_mean                     =   1.1117747335203880E+05
(PID.TID 0000.0001) %MON DYF_sd                       =   0.0000000000000000E+00
(PID.TID 0000.0001) %MON DYG_max                      =   1.1117747335203880E+05
(PID.TID 0000.0001) %MON DYG_min                      =   1.1117747335203880E+05
(PID.TID 0000.0001) %MON DYG_mean                     =   1.1117747335203880E+05
(PID.TID 0000.0001) %MON DYG_sd                       =   0.0000000000000000E+00
(PID.TID 0000.0001) %MON DYU_max                      =   1.1117747335203880E+05
(PID.TID 0000.0001) %MON DYU_min                      =   1.1117747335203880E+05
(PID.TID 0000.0001) %MON DYU_mean                     =   1.1117747335203880E+05
(PID.TID 0000.0001) %MON DYU_sd                       =   0.0000000000000000E+00
(PID.TID 0000.0001) %MON RA_max                       =   8.8159707668415375E+09
(PID.TID 0000.0001) %MON RA_min                       =   8.8159707668415375E+09
(PID.TID 0000.0001) %MON RA_mean                      =   8.8159707668415375E+09
(PID.TID 0000.0001) %MON RA_sd                        =   0.0000000000000000E+00
(PID.TID 0000.0001) %MON RAW_max                      =   8.8159707668415375E+09
(PID.TID 0000.0001) %MON RAW_min                      =   8.8159707668415375E+09
(PID.TID 0000.0001) %MON RAW_mean                     =   8.8159707668415375E+09
(PID.TID 0000.0001) %MON RAW_sd                       =   0.0000000000000000E+00
(PID.TID 0000.0001) %MON RAS_max                      =   8.7400333492513199E+09
(PID.TID 0000.0001) %MON RAS_min                      =   8.7400333492513199E+09
(PID.TID 0000.0001) %MON RAS_mean                     =   8.7400333492513199E+09
(PID.TID 0000.0001) %MON RAS_sd                       =   0.0000000000000000E+00
(PID.TID 0000.0001) %MON RAZ_max                      =   8.7400333492513199E+09
(PID.TID 0000.0001) %MON RAZ_min                      =   8.7400333492513199E+09
(PID.TID 0000.0001) %MON RAZ_mean                     =   8.7400333492513199E+09
(PID.TID 0000.0001) %MON RAZ_sd                       =   0.0000000000000000E+00
(PID.TID 0000.0001) %MON AngleCS_max                  =   1.0000000000000000E+00
(PID.TID 0000.0001) %MON AngleCS_min                  =   1.0000000000000000E+00
(PID.TID 0000.0001) %MON AngleCS_mean                 =   1.0000000000000000E+00
(PID.TID 0000.0001) %MON AngleCS_sd                   =   0.0000000000000000E+00
(PID.TID 0000.0001) %MON AngleSN_max                  =   0.0000000000000000E+00
(PID.TID 0000.0001) %MON AngleSN_min                  =   0.0000000000000000E+00
(PID.TID 0000.0001) %MON AngleSN_mean                 =   0.0000000000000000E+00
(PID.TID 0000.0001) %MON AngleSN_sd                   =   0.0000000000000000E+00
(PID.TID 0000.0001) %MON fCori_max                    =  -1.0222233858954729E-04
(PID.TID 0000.0001) %MON fCori_min                    =  -1.0222233858954729E-04
(PID.TID 0000.0001) %MON fCori_mean                   =  -1.0222233858954729E-04
(PID.TID 0000.0001) %MON fCori_sd                     =   0.0000000000000000E+00
(PID.TID 0000.0001) %MON fCoriG_max                   =  -1.0312619976227580E-04
(PID.TID 0000.0001) %MON fCoriG_min                   =  -1.0312619976227580E-04
(PID.TID 0000.0001) %MON fCoriG_mean                  =  -1.0312619976227580E-04
(PID.TID 0000.0001) %MON fCoriG_sd                    =   0.0000000000000000E+00
(PID.TID 0000.0001) %MON fCoriCos_max                 =   1.0402220747562310E-04
(PID.TID 0000.0001) %MON fCoriCos_min                 =   1.0402220747562310E-04
(PID.TID 0000.0001) %MON fCoriCos_mean                =   1.0402220747562310E-04
(PID.TID 0000.0001) %MON fCoriCos_sd                  =   0.0000000000000000E+00
(PID.TID 0000.0001) %MON time_tsnumber                =                     0
(PID.TID 0000.0001) %MON time_secondsf                =   0.0000000000000000E+00
(PID.TID 0000.0001) %MON dynstat_eta_max              =   0.0000000000000000E+00
(PID.TID 0000.0001) %MON dynstat_eta_min              =   0.0000000000000000E+00
(PID.TID 0000.0001) %MON dynstat_eta_mean             =   0.0000000000000000E+00
(PID.TID 0000.0001) %MON dynstat_eta_sd               =   0.0000000000000000E+00
(PID.TID 0000.0001) %MON dynstat_eta_del2             =   0.0000000000000000E+00
(PID.TID 0000.0001) %MON dynstat_uvel_max             =   0.0000000000000000E+00
(PID.TID 0000.0001) %MON dynstat_uvel_min             =   0.0000000000000000E+00
(PID.TID 0000.0001) %MON dynstat_uvel_mean            =   0.0000000000000000E+00
(PID.TID 0000.0001) %MON dynstat_uvel_sd              =   0.0000000000000000E+00
(PID.TID 0000.0001) %MON dynstat_uvel_del2            =   0.0000000000000000E+00
(PID.TID 0000.0001) %MON dynstat_vvel_max             =   0.0000000000000000E+00
(PID.TID 0000.0001) %MON dynstat_vvel_min             =   0.0000000000000000E+00
(PID.TID 0000.0001) %MON dynstat_vvel_mean            =   0.0000000000000000E+00
(PID.TID 0000.0001) %MON dynstat_vvel_sd              =   0.0000000000000000E+00
(PID.TID 0000.0001) %MON dynstat_vvel_del2            =   0.0000000000000000E+00
(PID.TID 0000.0001) %MON dynstat_wvel_max             =   0.0000000000000000E+00
(PID.TID 0000.0001) %MON dynstat_wvel_min             =   0.0000000000000000E+00
(PID.TID 0000.0001) %MON dynstat_wvel_mean            =   0.0000000000000000E+00
(PID.TID 0000.0001) %MON dynstat_wvel_sd              =   0.0000000000000000E+00
(PID.TID 0000.0001) %MON dynstat_wvel_del2            =   0.0000000000000000E+00
(PID.TID 0000.0001) %MON dynstat_theta_max            =   8.2977504730224609E+00
(PID.TID 0000.0001) %MON dynstat_theta_min            =   1.5167000293731689E+00
(PID.TID 0000.0001) %MON dynstat_theta_mean           =   2.8239317499687400E+00
(PID.TID 0000.0001) %MON dynstat_theta_sd             =   1.3644468593155439E+00
(PID.TID 0000.0001) %MON dynstat_theta_del2           =   0.0000000000000000E+00
(PID.TID 0000.0001) %MON dynstat_salt_max             =   3.5000000000000000E+01
(PID.TID 0000.0001) %MON dynstat_salt_min             =   3.5000000000000000E+01
(PID.TID 0000.0001) %MON dynstat_salt_mean            =   3.4999999999999986E+01
(PID.TID 0000.0001) %MON dynstat_salt_sd              =   1.4210854715202004E-14
(PID.TID 0000.0001) %MON dynstat_salt_del2            =   0.0000000000000000E+00
(PID.TID 0000.0001) %MON dynstat_sst_max              =   8.2959995269775391E+00
(PID.TID 0000.0001) %MON dynstat_sst_min              =   8.2959995269775391E+00
(PID.TID 0000.0001) %MON dynstat_sst_mean             =   8.2959995269775391E+00
(PID.TID 0000.0001) %MON dynstat_sst_sd               =   0.0000000000000000E+00
(PID.TID 0000.0001) %MON dynstat_sst_del2             =   0.0000000000000000E+00
(PID.TID 0000.0001) %MON dynstat_sss_max              =   3.5000000000000000E+01
(PID.TID 0000.0001) %MON dynstat_sss_min              =   3.5000000000000000E+01
(PID.TID 0000.0001) %MON dynstat_sss_mean             =   3.5000000000000000E+01
(PID.TID 0000.0001) %MON dynstat_sss_sd               =   0.0000000000000000E+00
(PID.TID 0000.0001) %MON dynstat_sss_del2             =   0.0000000000000000E+00
(PID.TID 0000.0001) %MON forcing_qnet_max             =   0.0000000000000000E+00
(PID.TID 0000.0001) %MON forcing_qnet_min             =   0.0000000000000000E+00
(PID.TID 0000.0001) %MON forcing_qnet_mean            =   0.0000000000000000E+00
(PID.TID 0000.0001) %MON forcing_qnet_sd              =   0.0000000000000000E+00
(PID.TID 0000.0001) %MON forcing_qnet_del2            =   0.0000000000000000E+00
(PID.TID 0000.0001) %MON forcing_qsw_max              =   0.0000000000000000E+00
(PID.TID 0000.0001) %MON forcing_qsw_min              =   0.0000000000000000E+00
(PID.TID 0000.0001) %MON forcing_qsw_mean             =   0.0000000000000000E+00
(PID.TID 0000.0001) %MON forcing_qsw_sd               =   0.0000000000000000E+00
(PID.TID 0000.0001) %MON forcing_qsw_del2             =   0.0000000000000000E+00
(PID.TID 0000.0001) %MON forcing_empmr_max            =   0.0000000000000000E+00
(PID.TID 0000.0001) %MON forcing_empmr_min            =   0.0000000000000000E+00
(PID.TID 0000.0001) %MON forcing_empmr_mean           =   0.0000000000000000E+00
(PID.TID 0000.0001) %MON forcing_empmr_sd             =   0.0000000000000000E+00
(PID.TID 0000.0001) %MON forcing_empmr_del2           =   0.0000000000000000E+00
(PID.TID 0000.0001) %MON forcing_fu_max               =   2.3210000991821289E+00
(PID.TID 0000.0001) %MON forcing_fu_min               =   2.3210000991821289E+00
(PID.TID 0000.0001) %MON forcing_fu_mean              =   2.3210000991821289E+00
(PID.TID 0000.0001) %MON forcing_fu_sd                =   0.0000000000000000E+00
(PID.TID 0000.0001) %MON forcing_fu_del2              =   0.0000000000000000E+00
(PID.TID 0000.0001) %MON forcing_fv_max               =  -4.5800000429153442E-01
(PID.TID 0000.0001) %MON forcing_fv_min               =  -4.5800000429153442E-01
(PID.TID 0000.0001) %MON forcing_fv_mean              =  -4.5800000429153448E-01
(PID.TID 0000.0001) %MON forcing_fv_sd                =   5.5511151231257827E-17
(PID.TID 0000.0001) %MON forcing_fv_del2              =   0.0000000000000000E+00
(PID.TID 0000.0001) %MON advcfl_uvel_max              =   0.0000000000000000E+00
(PID.TID 0000.0001) %MON advcfl_vvel_max              =   0.0000000000000000E+00
(PID.TID 0000.0001) %MON advcfl_wvel_max              =   0.0000000000000000E+00
(PID.TID 0000.0001) %MON advcfl_W_hf_max              =   0.0000000000000000E+00
(PID.TID 0000.0001) %MON pe_b_mean                    =   0.0000000000000000E+00
(PID.TID 0000.0001) %MON ke_max                       =   0.0000000000000000E+00
(PID.TID 0000.0001) %MON ke_mean                      =   0.0000000000000000E+00
(PID.TID 0000.0001) %MON ke_vol                       =   3.0811817830111180E+13
(PID.TID 0000.0001) %MON vort_r_min                   =   0.0000000000000000E+00
(PID.TID 0000.0001) %MON vort_r_max                   =   0.0000000000000000E+00
(PID.TID 0000.0001) %MON vort_a_mean                  =  -1.0312619976227577E-04
(PID.TID 0000.0001) %MON vort_a_sd                    =   2.8760747774580336E-12
(PID.TID 0000.0001) %MON vort_p_mean                  =  -1.0312619976227577E-04
(PID.TID 0000.0001) %MON vort_p_sd                    =   2.8760747774580336E-12
(PID.TID 0000.0001) %MON surfExpan_theta_mean         =   0.0000000000000000E+00
(PID.TID 0000.0001) %MON surfExpan_salt_mean          =   0.0000000000000000E+00
(PID.TID 0000.0001) %MON trcstat_ptracer01_max        =                      NAN
(PID.TID 0000.0001) %MON trcstat_ptracer01_min        =                      NAN
(PID.TID 0000.0001) %MON trcstat_ptracer01_mean       =                      NAN
(PID.TID 0000.0001) %MON trcstat_ptracer01_sd         =                      NAN
(PID.TID 0000.0001) %MON trcstat_ptracer01_del2       =                      NAN
(PID.TID 0000.0001) %MON trcstat_ptracer02_max        =   7.3161345720291138E-01
(PID.TID 0000.0001) %MON trcstat_ptracer02_min        =   5.2252426030463539E-06
(PID.TID 0000.0001) %MON trcstat_ptracer02_mean       =   2.1146586623550522E-02
(PID.TID 0000.0001) %MON trcstat_ptracer02_sd         =   1.1460123134912985E-01
(PID.TID 0000.0001) %MON trcstat_ptracer02_del2       =   0.0000000000000000E+00
(PID.TID 0000.0001) %MON trcstat_ptracer03_max        =   3.3000010251998901E-01
(PID.TID 0000.0001) %MON trcstat_ptracer03_min        =   1.1596751573961228E-04
(PID.TID 0000.0001) %MON trcstat_ptracer03_mean       =   2.6355158489910969E-02
(PID.TID 0000.0001) %MON trcstat_ptracer03_sd         =   6.2755794020604300E-02
(PID.TID 0000.0001) %MON trcstat_ptracer03_del2       =   0.0000000000000000E+00
(PID.TID 0000.0001) %MON trcstat_ptracer04_max        =   3.3950199127197266E+01
(PID.TID 0000.0001) %MON trcstat_ptracer04_min        =   1.6703975677490234E+01
(PID.TID 0000.0001) %MON trcstat_ptracer04_mean       =   3.0465642077728397E+01
(PID.TID 0000.0001) %MON trcstat_ptracer04_sd         =   3.3248084639155957E+00
(PID.TID 0000.0001) %MON trcstat_ptracer04_del2       =   0.0000000000000000E+00
(PID.TID 0000.0001) %MON trcstat_ptracer05_max        =   2.3152000904083252E+00
(PID.TID 0000.0001) %MON trcstat_ptracer05_min        =   1.0712499618530273E+00
(PID.TID 0000.0001) %MON trcstat_ptracer05_mean       =   2.0495008366643437E+00
(PID.TID 0000.0001) %MON trcstat_ptracer05_sd         =   2.5615688792220837E-01
(PID.TID 0000.0001) %MON trcstat_ptracer05_del2       =   0.0000000000000000E+00
(PID.TID 0000.0001) %MON trcstat_ptracer06_max        =   9.2368797302246094E+01
(PID.TID 0000.0001) %MON trcstat_ptracer06_min        =   3.8889998197555542E-01
(PID.TID 0000.0001) %MON trcstat_ptracer06_mean       =   6.0517938730372201E+01
(PID.TID 0000.0001) %MON trcstat_ptracer06_sd         =   2.7564406505864060E+01
(PID.TID 0000.0001) %MON trcstat_ptracer06_del2       =   0.0000000000000000E+00
(PID.TID 0000.0001) %MON trcstat_ptracer07_max        =   1.3000000035390258E-03
(PID.TID 0000.0001) %MON trcstat_ptracer07_min        =   1.3000000035390258E-03
(PID.TID 0000.0001) %MON trcstat_ptracer07_mean       =   1.3000000035390256E-03
(PID.TID 0000.0001) %MON trcstat_ptracer07_sd         =   2.1684043449710089E-19
(PID.TID 0000.0001) %MON trcstat_ptracer07_del2       =   0.0000000000000000E+00
(PID.TID 0000.0001) %MON trcstat_ptracer08_max        =   1.8351166248321533E+01
(PID.TID 0000.0001) %MON trcstat_ptracer08_min        =   0.0000000000000000E+00
(PID.TID 0000.0001) %MON trcstat_ptracer08_mean       =   7.4990786099406692E-01
(PID.TID 0000.0001) %MON trcstat_ptracer08_sd         =   3.0562222966443482E+00
(PID.TID 0000.0001) %MON trcstat_ptracer08_del2       =   0.0000000000000000E+00
(PID.TID 0000.0001) %MON trcstat_ptracer09_max        =   2.4468221664428711E+00
(PID.TID 0000.0001) %MON trcstat_ptracer09_min        =   0.0000000000000000E+00
(PID.TID 0000.0001) %MON trcstat_ptracer09_mean       =   9.9987714799208927E-02
(PID.TID 0000.0001) %MON trcstat_ptracer09_sd         =   4.0749630621924643E-01
(PID.TID 0000.0001) %MON trcstat_ptracer09_del2       =   0.0000000000000000E+00
(PID.TID 0000.0001) %MON trcstat_ptracer10_max        =   1.5292638540267944E-01
(PID.TID 0000.0001) %MON trcstat_ptracer10_min        =   0.0000000000000000E+00
(PID.TID 0000.0001) %MON trcstat_ptracer10_mean       =   6.2492321749505579E-03
(PID.TID 0000.0001) %MON trcstat_ptracer10_sd         =   2.5468519138702902E-02
(PID.TID 0000.0001) %MON trcstat_ptracer10_del2       =   0.0000000000000000E+00
(PID.TID 0000.0001) %MON trcstat_ptracer11_max        =   1.5292638272512704E-04
(PID.TID 0000.0001) %MON trcstat_ptracer11_min        =   0.0000000000000000E+00
(PID.TID 0000.0001) %MON trcstat_ptracer11_mean       =   6.2492321767615809E-06
(PID.TID 0000.0001) %MON trcstat_ptracer11_sd         =   2.5468519074562691E-05
(PID.TID 0000.0001) %MON trcstat_ptracer11_del2       =   0.0000000000000000E+00
(PID.TID 0000.0001) %MON trcstat_ptracer12_max        =   3.1860264390707016E+00
(PID.TID 0000.0001) %MON trcstat_ptracer12_min        =   3.9054635271895677E-03
(PID.TID 0000.0001) %MON trcstat_ptracer12_mean       =   5.6780167752647037E-01
(PID.TID 0000.0001) %MON trcstat_ptracer12_sd         =   9.2323417716229061E-01
(PID.TID 0000.0001) %MON trcstat_ptracer12_del2       =   0.0000000000000000E+00
(PID.TID 0000.0001) %MON trcstat_ptracer13_max        =   4.2480352520942688E-01
(PID.TID 0000.0001) %MON trcstat_ptracer13_min        =   5.2072847029194236E-04
(PID.TID 0000.0001) %MON trcstat_ptracer13_mean       =   7.5706890336862717E-02
(PID.TID 0000.0001) %MON trcstat_ptracer13_sd         =   1.2309789028830541E-01
(PID.TID 0000.0001) %MON trcstat_ptracer13_del2       =   0.0000000000000000E+00
(PID.TID 0000.0001) %MON trcstat_ptracer14_max        =   2.6550220325589180E-02
(PID.TID 0000.0001) %MON trcstat_ptracer14_min        =   3.2545529393246397E-05
(PID.TID 0000.0001) %MON trcstat_ptracer14_mean       =   4.7316806460539198E-03
(PID.TID 0000.0001) %MON trcstat_ptracer14_sd         =   7.6936181430190881E-03
(PID.TID 0000.0001) %MON trcstat_ptracer14_del2       =   0.0000000000000000E+00
(PID.TID 0000.0001) %MON trcstat_ptracer15_max        =   1.7408879648428410E-04
(PID.TID 0000.0001) %MON trcstat_ptracer15_min        =   1.3631536177616255E-10
(PID.TID 0000.0001) %MON trcstat_ptracer15_mean       =   8.0100022774682106E-05
(PID.TID 0000.0001) %MON trcstat_ptracer15_sd         =   6.8134860848991478E-05
(PID.TID 0000.0001) %MON trcstat_ptracer15_del2       =   0.0000000000000000E+00
(PID.TID 0000.0001) %MON trcstat_ptracer16_max        =   2.6550218535703607E-05
(PID.TID 0000.0001) %MON trcstat_ptracer16_min        =   3.2545532491212725E-08
(PID.TID 0000.0001) %MON trcstat_ptracer16_mean       =   4.7316805416602897E-06
(PID.TID 0000.0001) %MON trcstat_ptracer16_sd         =   7.6936179296091290E-06
(PID.TID 0000.0001) %MON trcstat_ptracer16_del2       =   0.0000000000000000E+00
(PID.TID 0000.0001) %MON trcstat_ptracer17_max        =                      NAN
(PID.TID 0000.0001) %MON trcstat_ptracer17_min        =                      NAN
(PID.TID 0000.0001) %MON trcstat_ptracer17_mean       =                      NAN
(PID.TID 0000.0001) %MON trcstat_ptracer17_sd         =                      NAN
(PID.TID 0000.0001) %MON trcstat_ptracer17_del2       =                      NAN
(PID.TID 0000.0001) %MON trcstat_ptracer18_max        =   6.7132097683497705E-04
(PID.TID 0000.0001) %MON trcstat_ptracer18_min        =   0.0000000000000000E+00
(PID.TID 0000.0001) %MON trcstat_ptracer18_mean       =   2.0654946074344777E-05
(PID.TID 0000.0001) %MON trcstat_ptracer18_sd         =   9.1096206219399613E-05
(PID.TID 0000.0001) %MON trcstat_ptracer18_del2       =   0.0000000000000000E+00
(PID.TID 0000.0001) %MON trcstat_ptracer19_max        =   6.7132097683497705E-04
(PID.TID 0000.0001) %MON trcstat_ptracer19_min        =   0.0000000000000000E+00
(PID.TID 0000.0001) %MON trcstat_ptracer19_mean       =   2.0654946074344777E-05
(PID.TID 0000.0001) %MON trcstat_ptracer19_sd         =   9.1096206219399613E-05
(PID.TID 0000.0001) %MON trcstat_ptracer19_del2       =   0.0000000000000000E+00
(PID.TID 0000.0001) %MON trcstat_ptracer20_max        =   2.8491763025522232E+00
(PID.TID 0000.0001) %MON trcstat_ptracer20_min        =   0.0000000000000000E+00
(PID.TID 0000.0001) %MON trcstat_ptracer20_mean       =   8.2688722730756156E-02
(PID.TID 0000.0001) %MON trcstat_ptracer20_sd         =   4.2584796438359918E-01
(PID.TID 0000.0001) %MON trcstat_ptracer20_del2       =   0.0000000000000000E+00
(PID.TID 0000.0001) %MON trcstat_ptracer21_max        =   2.8491763025522232E+00
(PID.TID 0000.0001) %MON trcstat_ptracer21_min        =   0.0000000000000000E+00
(PID.TID 0000.0001) %MON trcstat_ptracer21_mean       =   8.2688722730756156E-02
(PID.TID 0000.0001) %MON trcstat_ptracer21_sd         =   4.2584796438359918E-01
(PID.TID 0000.0001) %MON trcstat_ptracer21_del2       =   0.0000000000000000E+00
(PID.TID 0000.0001) %MON time_tsnumber                =                     1
(PID.TID 0000.0001) %MON time_secondsf                =   3.6000000000000000E+03
(PID.TID 0000.0001) %MON dynstat_eta_max              =   0.0000000000000000E+00
(PID.TID 0000.0001) %MON dynstat_eta_min              =   0.0000000000000000E+00
(PID.TID 0000.0001) %MON dynstat_eta_mean             =   0.0000000000000000E+00
(PID.TID 0000.0001) %MON dynstat_eta_sd               =   0.0000000000000000E+00
(PID.TID 0000.0001) %MON dynstat_eta_del2             =   0.0000000000000000E+00
(PID.TID 0000.0001) %MON dynstat_uvel_max             =   0.0000000000000000E+00
(PID.TID 0000.0001) %MON dynstat_uvel_min             =   0.0000000000000000E+00
(PID.TID 0000.0001) %MON dynstat_uvel_mean            =   0.0000000000000000E+00
(PID.TID 0000.0001) %MON dynstat_uvel_sd              =   0.0000000000000000E+00
(PID.TID 0000.0001) %MON dynstat_uvel_del2            =   0.0000000000000000E+00
(PID.TID 0000.0001) %MON dynstat_vvel_max             =   0.0000000000000000E+00
(PID.TID 0000.0001) %MON dynstat_vvel_min             =   0.0000000000000000E+00
(PID.TID 0000.0001) %MON dynstat_vvel_mean            =   0.0000000000000000E+00
(PID.TID 0000.0001) %MON dynstat_vvel_sd              =   0.0000000000000000E+00
(PID.TID 0000.0001) %MON dynstat_vvel_del2            =   0.0000000000000000E+00
(PID.TID 0000.0001) %MON dynstat_wvel_max             =   0.0000000000000000E+00
(PID.TID 0000.0001) %MON dynstat_wvel_min             =   0.0000000000000000E+00
(PID.TID 0000.0001) %MON dynstat_wvel_mean            =   0.0000000000000000E+00
(PID.TID 0000.0001) %MON dynstat_wvel_sd              =   0.0000000000000000E+00
(PID.TID 0000.0001) %MON dynstat_wvel_del2            =   0.0000000000000000E+00
(PID.TID 0000.0001) %MON dynstat_theta_max            =   8.2824962465671614E+00
(PID.TID 0000.0001) %MON dynstat_theta_min            =   1.5167006338840423E+00
(PID.TID 0000.0001) %MON dynstat_theta_mean           =   2.8239040467417342E+00
(PID.TID 0000.0001) %MON dynstat_theta_sd             =   1.3643285852844826E+00
(PID.TID 0000.0001) %MON dynstat_theta_del2           =   0.0000000000000000E+00
(PID.TID 0000.0001) %MON dynstat_salt_max             =   3.5000000000000000E+01
(PID.TID 0000.0001) %MON dynstat_salt_min             =   3.5000000000000000E+01
(PID.TID 0000.0001) %MON dynstat_salt_mean            =   3.4999999999999986E+01
(PID.TID 0000.0001) %MON dynstat_salt_sd              =   1.4210854715202004E-14
(PID.TID 0000.0001) %MON dynstat_salt_del2            =   0.0000000000000000E+00
(PID.TID 0000.0001) %MON dynstat_sst_max              =   8.2824962465671614E+00
(PID.TID 0000.0001) %MON dynstat_sst_min              =   8.2824962465671614E+00
(PID.TID 0000.0001) %MON dynstat_sst_mean             =   8.2824962465671614E+00
(PID.TID 0000.0001) %MON dynstat_sst_sd               =   0.0000000000000000E+00
(PID.TID 0000.0001) %MON dynstat_sst_del2             =   0.0000000000000000E+00
(PID.TID 0000.0001) %MON dynstat_sss_max              =   3.5000000000000000E+01
(PID.TID 0000.0001) %MON dynstat_sss_min              =   3.5000000000000000E+01
(PID.TID 0000.0001) %MON dynstat_sss_mean             =   3.5000000000000000E+01
(PID.TID 0000.0001) %MON dynstat_sss_sd               =   0.0000000000000000E+00
(PID.TID 0000.0001) %MON dynstat_sss_del2             =   0.0000000000000000E+00
(PID.TID 0000.0001) %MON forcing_qnet_max             =   0.0000000000000000E+00
(PID.TID 0000.0001) %MON forcing_qnet_min             =   0.0000000000000000E+00
(PID.TID 0000.0001) %MON forcing_qnet_mean            =   0.0000000000000000E+00
(PID.TID 0000.0001) %MON forcing_qnet_sd              =   0.0000000000000000E+00
(PID.TID 0000.0001) %MON forcing_qnet_del2            =   0.0000000000000000E+00
(PID.TID 0000.0001) %MON forcing_qsw_max              =   0.0000000000000000E+00
(PID.TID 0000.0001) %MON forcing_qsw_min              =   0.0000000000000000E+00
(PID.TID 0000.0001) %MON forcing_qsw_mean             =   0.0000000000000000E+00
(PID.TID 0000.0001) %MON forcing_qsw_sd               =   0.0000000000000000E+00
(PID.TID 0000.0001) %MON forcing_qsw_del2             =   0.0000000000000000E+00
(PID.TID 0000.0001) %MON forcing_empmr_max            =   0.0000000000000000E+00
(PID.TID 0000.0001) %MON forcing_empmr_min            =   0.0000000000000000E+00
(PID.TID 0000.0001) %MON forcing_empmr_mean           =   0.0000000000000000E+00
(PID.TID 0000.0001) %MON forcing_empmr_sd             =   0.0000000000000000E+00
(PID.TID 0000.0001) %MON forcing_empmr_del2           =   0.0000000000000000E+00
(PID.TID 0000.0001) %MON forcing_fu_max               =   2.2645000219345093E+00
(PID.TID 0000.0001) %MON forcing_fu_min               =   2.2645000219345093E+00
(PID.TID 0000.0001) %MON forcing_fu_mean              =   2.2645000219345093E+00
(PID.TID 0000.0001) %MON forcing_fu_sd                =   0.0000000000000000E+00
(PID.TID 0000.0001) %MON forcing_fu_del2              =   0.0000000000000000E+00
(PID.TID 0000.0001) %MON forcing_fv_max               =  -4.1300000250339508E-01
(PID.TID 0000.0001) %MON forcing_fv_min               =  -4.1300000250339508E-01
(PID.TID 0000.0001) %MON forcing_fv_mean              =  -4.1300000250339503E-01
(PID.TID 0000.0001) %MON forcing_fv_sd                =   5.5511151231257827E-17
(PID.TID 0000.0001) %MON forcing_fv_del2              =   0.0000000000000000E+00
(PID.TID 0000.0001) %MON advcfl_uvel_max              =   0.0000000000000000E+00
(PID.TID 0000.0001) %MON advcfl_vvel_max              =   0.0000000000000000E+00
(PID.TID 0000.0001) %MON advcfl_wvel_max              =   0.0000000000000000E+00
(PID.TID 0000.0001) %MON advcfl_W_hf_max              =   0.0000000000000000E+00
(PID.TID 0000.0001) %MON pe_b_mean                    =   0.0000000000000000E+00
(PID.TID 0000.0001) %MON ke_max                       =   0.0000000000000000E+00
(PID.TID 0000.0001) %MON ke_mean                      =   0.0000000000000000E+00
(PID.TID 0000.0001) %MON ke_vol                       =   3.0811817830111180E+13
(PID.TID 0000.0001) %MON vort_r_min                   =   0.0000000000000000E+00
(PID.TID 0000.0001) %MON vort_r_max                   =   0.0000000000000000E+00
(PID.TID 0000.0001) %MON vort_a_mean                  =  -1.0312619976227577E-04
(PID.TID 0000.0001) %MON vort_a_sd                    =   2.8760747774580336E-12
(PID.TID 0000.0001) %MON vort_p_mean                  =  -1.0312619976227577E-04
(PID.TID 0000.0001) %MON vort_p_sd                    =   2.8760747774580336E-12
(PID.TID 0000.0001) %MON surfExpan_theta_mean         =   0.0000000000000000E+00
(PID.TID 0000.0001) %MON surfExpan_salt_mean          =   0.0000000000000000E+00
(PID.TID 0000.0001) %MON trcstat_ptracer01_max        =                      NAN
(PID.TID 0000.0001) %MON trcstat_ptracer01_min        =                      NAN
(PID.TID 0000.0001) %MON trcstat_ptracer01_mean       =                      NAN
(PID.TID 0000.0001) %MON trcstat_ptracer01_sd         =                      NAN
(PID.TID 0000.0001) %MON trcstat_ptracer01_del2       =                      NAN
(PID.TID 0000.0001) %MON trcstat_ptracer02_max        =   7.3263249031853006E-01
(PID.TID 0000.0001) %MON trcstat_ptracer02_min        =   5.2237466059770898E-06
(PID.TID 0000.0001) %MON trcstat_ptracer02_mean       =   2.1156485291389877E-02
(PID.TID 0000.0001) %MON trcstat_ptracer02_sd         =   1.1475367402040929E-01
(PID.TID 0000.0001) %MON trcstat_ptracer02_del2       =   0.0000000000000000E+00
(PID.TID 0000.0001) %MON trcstat_ptracer03_max        =   3.3197051868356919E-01
(PID.TID 0000.0001) %MON trcstat_ptracer03_min        =   1.1591976312977867E-04
(PID.TID 0000.0001) %MON trcstat_ptracer03_mean       =   2.6378519393548933E-02
(PID.TID 0000.0001) %MON trcstat_ptracer03_sd         =   6.2844817230120142E-02
(PID.TID 0000.0001) %MON trcstat_ptracer03_del2       =   0.0000000000000000E+00
(PID.TID 0000.0001) %MON trcstat_ptracer04_max        =   3.3950225560835456E+01
(PID.TID 0000.0001) %MON trcstat_ptracer04_min        =   1.6715810416324690E+01
(PID.TID 0000.0001) %MON trcstat_ptracer04_mean       =   3.0465713504181444E+01
(PID.TID 0000.0001) %MON trcstat_ptracer04_sd         =   3.3246503195386836E+00
(PID.TID 0000.0001) %MON trcstat_ptracer04_del2       =   0.0000000000000000E+00
(PID.TID 0000.0001) %MON trcstat_ptracer05_max        =   2.3152009190731286E+00
(PID.TID 0000.0001) %MON trcstat_ptracer05_min        =   1.0808384580165540E+00
(PID.TID 0000.0001) %MON trcstat_ptracer05_mean       =   2.0495073795408767E+00
(PID.TID 0000.0001) %MON trcstat_ptracer05_sd         =   2.5614284528398534E-01
(PID.TID 0000.0001) %MON trcstat_ptracer05_del2       =   0.0000000000000000E+00
(PID.TID 0000.0001) %MON trcstat_ptracer06_max        =   9.2368795565334651E+01
(PID.TID 0000.0001) %MON trcstat_ptracer06_min        =   4.2814071715264218E-01
(PID.TID 0000.0001) %MON trcstat_ptracer06_mean       =   6.0517938741497204E+01
(PID.TID 0000.0001) %MON trcstat_ptracer06_sd         =   2.7564394992102883E+01
(PID.TID 0000.0001) %MON trcstat_ptracer06_del2       =   0.0000000000000000E+00
(PID.TID 0000.0001) %MON trcstat_ptracer07_max        =   1.3001995977617983E-03
(PID.TID 0000.0001) %MON trcstat_ptracer07_min        =   1.2999854197363186E-03
(PID.TID 0000.0001) %MON trcstat_ptracer07_mean       =   1.2999923475086510E-03
(PID.TID 0000.0001) %MON trcstat_ptracer07_sd         =   1.7624038266852018E-08
(PID.TID 0000.0001) %MON trcstat_ptracer07_del2       =   0.0000000000000000E+00
(PID.TID 0000.0001) %MON trcstat_ptracer08_max        =   1.8347793128538090E+01
(PID.TID 0000.0001) %MON trcstat_ptracer08_min        =   1.2831036355663991E-37
(PID.TID 0000.0001) %MON trcstat_ptracer08_mean       =   7.4972185781248957E-01
(PID.TID 0000.0001) %MON trcstat_ptracer08_sd         =   3.0555686789055985E+00
(PID.TID 0000.0001) %MON trcstat_ptracer08_del2       =   0.0000000000000000E+00
(PID.TID 0000.0001) %MON trcstat_ptracer09_max        =   2.4463724171384120E+00
(PID.TID 0000.0001) %MON trcstat_ptracer09_min        =   1.7108048474218653E-38
(PID.TID 0000.0001) %MON trcstat_ptracer09_mean       =   9.9962914374998602E-02
(PID.TID 0000.0001) %MON trcstat_ptracer09_sd         =   4.0740915718741311E-01
(PID.TID 0000.0001) %MON trcstat_ptracer09_del2       =   0.0000000000000000E+00
(PID.TID 0000.0001) %MON trcstat_ptracer10_max        =   1.5289827607115075E-01
(PID.TID 0000.0001) %MON trcstat_ptracer10_min        =   1.0692530296386658E-39
(PID.TID 0000.0001) %MON trcstat_ptracer10_mean       =   6.2476821484374126E-03
(PID.TID 0000.0001) %MON trcstat_ptracer10_sd         =   2.5463072324213319E-02
(PID.TID 0000.0001) %MON trcstat_ptracer10_del2       =   0.0000000000000000E+00
(PID.TID 0000.0001) %MON trcstat_ptracer11_max        =   1.5289827339360197E-04
(PID.TID 0000.0001) %MON trcstat_ptracer11_min        =   1.0692526930594289E-42
(PID.TID 0000.0001) %MON trcstat_ptracer11_mean       =   6.2476821502476802E-06
(PID.TID 0000.0001) %MON trcstat_ptracer11_sd         =   2.5463072260079342E-05
(PID.TID 0000.0001) %MON trcstat_ptracer11_del2       =   0.0000000000000000E+00
(PID.TID 0000.0001) %MON trcstat_ptracer12_max        =   3.1819253113485777E+00
(PID.TID 0000.0001) %MON trcstat_ptracer12_min        =   3.9076358834981813E-03
(PID.TID 0000.0001) %MON trcstat_ptracer12_mean       =   5.6743199682147627E-01
(PID.TID 0000.0001) %MON trcstat_ptracer12_sd         =   9.2236811864887436E-01
(PID.TID 0000.0001) %MON trcstat_ptracer12_del2       =   0.0000000000000000E+00
(PID.TID 0000.0001) %MON trcstat_ptracer13_max        =   4.2425670817981037E-01
(PID.TID 0000.0001) %MON trcstat_ptracer13_min        =   5.2101811779975752E-04
(PID.TID 0000.0001) %MON trcstat_ptracer13_mean       =   7.5657599576196832E-02
(PID.TID 0000.0001) %MON trcstat_ptracer13_sd         =   1.2298241581984991E-01
(PID.TID 0000.0001) %MON trcstat_ptracer13_del2       =   0.0000000000000000E+00
(PID.TID 0000.0001) %MON trcstat_ptracer14_max        =   2.6516044261238148E-02
(PID.TID 0000.0001) %MON trcstat_ptracer14_min        =   3.2563632362484845E-05
(PID.TID 0000.0001) %MON trcstat_ptracer14_mean       =   4.7285999735123020E-03
(PID.TID 0000.0001) %MON trcstat_ptracer14_sd         =   7.6864009887406192E-03
(PID.TID 0000.0001) %MON trcstat_ptracer14_del2       =   0.0000000000000000E+00
(PID.TID 0000.0001) %MON trcstat_ptracer15_max        =   1.7419840391270407E-04
(PID.TID 0000.0001) %MON trcstat_ptracer15_min        =   1.4405030960559033E-10
(PID.TID 0000.0001) %MON trcstat_ptracer15_mean       =   8.0088897771518961E-05
(PID.TID 0000.0001) %MON trcstat_ptracer15_sd         =   6.8147135502118935E-05
(PID.TID 0000.0001) %MON trcstat_ptracer15_del2       =   0.0000000000000000E+00
(PID.TID 0000.0001) %MON trcstat_ptracer16_max        =   2.6516042471037810E-05
(PID.TID 0000.0001) %MON trcstat_ptracer16_min        =   3.2563635457253173E-08
(PID.TID 0000.0001) %MON trcstat_ptracer16_mean       =   4.7285998692056666E-06
(PID.TID 0000.0001) %MON trcstat_ptracer16_sd         =   7.6864007757299761E-06
(PID.TID 0000.0001) %MON trcstat_ptracer16_del2       =   0.0000000000000000E+00
(PID.TID 0000.0001) %MON trcstat_ptracer17_max        =                      NAN
(PID.TID 0000.0001) %MON trcstat_ptracer17_min        =                      NAN
(PID.TID 0000.0001) %MON trcstat_ptracer17_mean       =                      NAN
(PID.TID 0000.0001) %MON trcstat_ptracer17_sd         =                      NAN
(PID.TID 0000.0001) %MON trcstat_ptracer17_del2       =                      NAN
(PID.TID 0000.0001) %MON trcstat_ptracer18_max        =   6.7891687562324644E-04
(PID.TID 0000.0001) %MON trcstat_ptracer18_min        =   9.1196905435076994E-71
(PID.TID 0000.0001) %MON trcstat_ptracer18_mean       =   2.0783722119606449E-05
(PID.TID 0000.0001) %MON trcstat_ptracer18_sd         =   9.2090887883045712E-05
(PID.TID 0000.0001) %MON trcstat_ptracer18_del2       =   0.0000000000000000E+00
(PID.TID 0000.0001) %MON trcstat_ptracer19_max        =   6.7711347665283398E-04
(PID.TID 0000.0001) %MON trcstat_ptracer19_min        =   3.1409096159126834E-73
(PID.TID 0000.0001) %MON trcstat_ptracer19_mean       =   2.0675717016328433E-05
(PID.TID 0000.0001) %MON trcstat_ptracer19_sd         =   9.1361187339249468E-05
(PID.TID 0000.0001) %MON trcstat_ptracer19_del2       =   0.0000000000000000E+00
(PID.TID 0000.0001) %MON trcstat_ptracer20_max        =   2.8447290351003240E+00
(PID.TID 0000.0001) %MON trcstat_ptracer20_min        =   1.3787332593419702E-70
(PID.TID 0000.0001) %MON trcstat_ptracer20_mean       =   8.2573913916542258E-02
(PID.TID 0000.0001) %MON trcstat_ptracer20_sd         =   4.2525427500318314E-01
(PID.TID 0000.0001) %MON trcstat_ptracer20_del2       =   0.0000000000000000E+00
(PID.TID 0000.0001) %MON trcstat_ptracer21_max        =   2.8447293480111355E+00
(PID.TID 0000.0001) %MON trcstat_ptracer21_min        =   1.3787332593419702E-70
(PID.TID 0000.0001) %MON trcstat_ptracer21_mean       =   8.2573920700620612E-02
(PID.TID 0000.0001) %MON trcstat_ptracer21_sd         =   4.2525431540810926E-01
(PID.TID 0000.0001) %MON trcstat_ptracer21_del2       =   0.0000000000000000E+00
(PID.TID 0000.0001) %MON time_tsnumber                =                     2
(PID.TID 0000.0001) %MON time_secondsf                =   7.2000000000000000E+03
(PID.TID 0000.0001) %MON dynstat_eta_max              =   0.0000000000000000E+00
(PID.TID 0000.0001) %MON dynstat_eta_min              =   0.0000000000000000E+00
(PID.TID 0000.0001) %MON dynstat_eta_mean             =   0.0000000000000000E+00
(PID.TID 0000.0001) %MON dynstat_eta_sd               =   0.0000000000000000E+00
(PID.TID 0000.0001) %MON dynstat_eta_del2             =   0.0000000000000000E+00
(PID.TID 0000.0001) %MON dynstat_uvel_max             =   0.0000000000000000E+00
(PID.TID 0000.0001) %MON dynstat_uvel_min             =   0.0000000000000000E+00
(PID.TID 0000.0001) %MON dynstat_uvel_mean            =   0.0000000000000000E+00
(PID.TID 0000.0001) %MON dynstat_uvel_sd              =   0.0000000000000000E+00
(PID.TID 0000.0001) %MON dynstat_uvel_del2            =   0.0000000000000000E+00
(PID.TID 0000.0001) %MON dynstat_vvel_max             =   0.0000000000000000E+00
(PID.TID 0000.0001) %MON dynstat_vvel_min             =   0.0000000000000000E+00
(PID.TID 0000.0001) %MON dynstat_vvel_mean            =   0.0000000000000000E+00
(PID.TID 0000.0001) %MON dynstat_vvel_sd              =   0.0000000000000000E+00
(PID.TID 0000.0001) %MON dynstat_vvel_del2            =   0.0000000000000000E+00
(PID.TID 0000.0001) %MON dynstat_wvel_max             =   0.0000000000000000E+00
(PID.TID 0000.0001) %MON dynstat_wvel_min             =   0.0000000000000000E+00
(PID.TID 0000.0001) %MON dynstat_wvel_mean            =   0.0000000000000000E+00
(PID.TID 0000.0001) %MON dynstat_wvel_sd              =   0.0000000000000000E+00
(PID.TID 0000.0001) %MON dynstat_wvel_del2            =   0.0000000000000000E+00
(PID.TID 0000.0001) %MON dynstat_theta_max            =   8.2719359074106933E+00
(PID.TID 0000.0001) %MON dynstat_theta_min            =   1.5167012383938983E+00
(PID.TID 0000.0001) %MON dynstat_theta_mean           =   2.8238790423732119E+00
(PID.TID 0000.0001) %MON dynstat_theta_sd             =   1.3642220709211459E+00
(PID.TID 0000.0001) %MON dynstat_theta_del2           =   0.0000000000000000E+00
(PID.TID 0000.0001) %MON dynstat_salt_max             =   3.5000000000000000E+01
(PID.TID 0000.0001) %MON dynstat_salt_min             =   3.5000000000000000E+01
(PID.TID 0000.0001) %MON dynstat_salt_mean            =   3.4999999999999986E+01
(PID.TID 0000.0001) %MON dynstat_salt_sd              =   1.4210854715202004E-14
(PID.TID 0000.0001) %MON dynstat_salt_del2            =   0.0000000000000000E+00
(PID.TID 0000.0001) %MON dynstat_sst_max              =   8.2719359074106933E+00
(PID.TID 0000.0001) %MON dynstat_sst_min              =   8.2719359074106933E+00
(PID.TID 0000.0001) %MON dynstat_sst_mean             =   8.2719359074106933E+00
(PID.TID 0000.0001) %MON dynstat_sst_sd               =   0.0000000000000000E+00
(PID.TID 0000.0001) %MON dynstat_sst_del2             =   0.0000000000000000E+00
(PID.TID 0000.0001) %MON dynstat_sss_max              =   3.5000000000000000E+01
(PID.TID 0000.0001) %MON dynstat_sss_min              =   3.5000000000000000E+01
(PID.TID 0000.0001) %MON dynstat_sss_mean             =   3.5000000000000000E+01
(PID.TID 0000.0001) %MON dynstat_sss_sd               =   0.0000000000000000E+00
(PID.TID 0000.0001) %MON dynstat_sss_del2             =   0.0000000000000000E+00
(PID.TID 0000.0001) %MON forcing_qnet_max             =   0.0000000000000000E+00
(PID.TID 0000.0001) %MON forcing_qnet_min             =   0.0000000000000000E+00
(PID.TID 0000.0001) %MON forcing_qnet_mean            =   0.0000000000000000E+00
(PID.TID 0000.0001) %MON forcing_qnet_sd              =   0.0000000000000000E+00
(PID.TID 0000.0001) %MON forcing_qnet_del2            =   0.0000000000000000E+00
(PID.TID 0000.0001) %MON forcing_qsw_max              =   0.0000000000000000E+00
(PID.TID 0000.0001) %MON forcing_qsw_min              =   0.0000000000000000E+00
(PID.TID 0000.0001) %MON forcing_qsw_mean             =   0.0000000000000000E+00
(PID.TID 0000.0001) %MON forcing_qsw_sd               =   0.0000000000000000E+00
(PID.TID 0000.0001) %MON forcing_qsw_del2             =   0.0000000000000000E+00
(PID.TID 0000.0001) %MON forcing_empmr_max            =   0.0000000000000000E+00
(PID.TID 0000.0001) %MON forcing_empmr_min            =   0.0000000000000000E+00
(PID.TID 0000.0001) %MON forcing_empmr_mean           =   0.0000000000000000E+00
(PID.TID 0000.0001) %MON forcing_empmr_sd             =   0.0000000000000000E+00
(PID.TID 0000.0001) %MON forcing_empmr_del2           =   0.0000000000000000E+00
(PID.TID 0000.0001) %MON forcing_fu_max               =   2.2646569665935306E+00
(PID.TID 0000.0001) %MON forcing_fu_min               =   2.2646569665935306E+00
(PID.TID 0000.0001) %MON forcing_fu_mean              =   2.2646569665935306E+00
(PID.TID 0000.0001) %MON forcing_fu_sd                =   0.0000000000000000E+00
(PID.TID 0000.0001) %MON forcing_fu_del2              =   0.0000000000000000E+00
(PID.TID 0000.0001) %MON forcing_fv_max               =  -4.1312500250836215E-01
(PID.TID 0000.0001) %MON forcing_fv_min               =  -4.1312500250836215E-01
(PID.TID 0000.0001) %MON forcing_fv_mean              =  -4.1312500250836215E-01
(PID.TID 0000.0001) %MON forcing_fv_sd                =   0.0000000000000000E+00
(PID.TID 0000.0001) %MON forcing_fv_del2              =   0.0000000000000000E+00
(PID.TID 0000.0001) %MON advcfl_uvel_max              =   0.0000000000000000E+00
(PID.TID 0000.0001) %MON advcfl_vvel_max              =   0.0000000000000000E+00
(PID.TID 0000.0001) %MON advcfl_wvel_max              =   0.0000000000000000E+00
(PID.TID 0000.0001) %MON advcfl_W_hf_max              =   0.0000000000000000E+00
(PID.TID 0000.0001) %MON pe_b_mean                    =   0.0000000000000000E+00
(PID.TID 0000.0001) %MON ke_max                       =   0.0000000000000000E+00
(PID.TID 0000.0001) %MON ke_mean                      =   0.0000000000000000E+00
(PID.TID 0000.0001) %MON ke_vol                       =   3.0811817830111180E+13
(PID.TID 0000.0001) %MON vort_r_min                   =   0.0000000000000000E+00
(PID.TID 0000.0001) %MON vort_r_max                   =   0.0000000000000000E+00
(PID.TID 0000.0001) %MON vort_a_mean                  =  -1.0312619976227577E-04
(PID.TID 0000.0001) %MON vort_a_sd                    =   2.8760747774580336E-12
(PID.TID 0000.0001) %MON vort_p_mean                  =  -1.0312619976227577E-04
(PID.TID 0000.0001) %MON vort_p_sd                    =   2.8760747774580336E-12
(PID.TID 0000.0001) %MON surfExpan_theta_mean         =   0.0000000000000000E+00
(PID.TID 0000.0001) %MON surfExpan_salt_mean          =   0.0000000000000000E+00
(PID.TID 0000.0001) %MON trcstat_ptracer01_max        =                      NAN
(PID.TID 0000.0001) %MON trcstat_ptracer01_min        =                      NAN
(PID.TID 0000.0001) %MON trcstat_ptracer01_mean       =                      NAN
(PID.TID 0000.0001) %MON trcstat_ptracer01_sd         =                      NAN
(PID.TID 0000.0001) %MON trcstat_ptracer01_del2       =                      NAN
(PID.TID 0000.0001) %MON trcstat_ptracer02_max        =   7.3372425223038973E-01
(PID.TID 0000.0001) %MON trcstat_ptracer02_min        =   5.2226166487114052E-06
(PID.TID 0000.0001) %MON trcstat_ptracer02_mean       =   2.1167021738768447E-02
(PID.TID 0000.0001) %MON trcstat_ptracer02_sd         =   1.1490728160892226E-01
(PID.TID 0000.0001) %MON trcstat_ptracer02_del2       =   0.0000000000000000E+00
(PID.TID 0000.0001) %MON trcstat_ptracer03_max        =   3.3385679780241079E-01
(PID.TID 0000.0001) %MON trcstat_ptracer03_min        =   1.1587208482857823E-04
(PID.TID 0000.0001) %MON trcstat_ptracer03_mean       =   2.6401148564857899E-02
(PID.TID 0000.0001) %MON trcstat_ptracer03_sd         =   6.2931751646521705E-02
(PID.TID 0000.0001) %MON trcstat_ptracer03_del2       =   0.0000000000000000E+00
(PID.TID 0000.0001) %MON trcstat_ptracer04_max        =   3.3950252037083310E+01
(PID.TID 0000.0001) %MON trcstat_ptracer04_min        =   1.6740565952603625E+01
(PID.TID 0000.0001) %MON trcstat_ptracer04_mean       =   3.0465784972567626E+01
(PID.TID 0000.0001) %MON trcstat_ptracer04_sd         =   3.3245613450911744E+00
(PID.TID 0000.0001) %MON trcstat_ptracer04_del2       =   0.0000000000000000E+00
(PID.TID 0000.0001) %MON trcstat_ptracer05_max        =   2.3152017485968144E+00
(PID.TID 0000.0001) %MON trcstat_ptracer05_min        =   1.0840230524405132E+00
(PID.TID 0000.0001) %MON trcstat_ptracer05_mean       =   2.0495139191661815E+00
(PID.TID 0000.0001) %MON trcstat_ptracer05_sd         =   2.5613005420977719E-01
(PID.TID 0000.0001) %MON trcstat_ptracer05_del2       =   0.0000000000000000E+00
(PID.TID 0000.0001) %MON trcstat_ptracer06_max        =   9.2368793828438811E+01
(PID.TID 0000.0001) %MON trcstat_ptracer06_min        =   4.4054116136543503E-01
(PID.TID 0000.0001) %MON trcstat_ptracer06_mean       =   6.0517938752620665E+01
(PID.TID 0000.0001) %MON trcstat_ptracer06_sd         =   2.7564392469780749E+01
(PID.TID 0000.0001) %MON trcstat_ptracer06_del2       =   0.0000000000000000E+00
(PID.TID 0000.0001) %MON trcstat_ptracer07_max        =   1.3003229859801346E-03
(PID.TID 0000.0001) %MON trcstat_ptracer07_min        =   1.2999708365925532E-03
(PID.TID 0000.0001) %MON trcstat_ptracer07_mean       =   1.2999846885650493E-03
(PID.TID 0000.0001) %MON trcstat_ptracer07_sd         =   3.3779360354676025E-08
(PID.TID 0000.0001) %MON trcstat_ptracer07_del2       =   0.0000000000000000E+00
(PID.TID 0000.0001) %MON trcstat_ptracer08_max        =   1.8344415261814163E+01
(PID.TID 0000.0001) %MON trcstat_ptracer08_min        =   7.6954132856062105E-37
(PID.TID 0000.0001) %MON trcstat_ptracer08_mean       =   7.4953575717108567E-01
(PID.TID 0000.0001) %MON trcstat_ptracer08_sd         =   3.0549144853857571E+00
(PID.TID 0000.0001) %MON trcstat_ptracer08_del2       =   0.0000000000000000E+00
(PID.TID 0000.0001) %MON trcstat_ptracer09_max        =   2.4459220349085551E+00
(PID.TID 0000.0001) %MON trcstat_ptracer09_min        =   1.0260551047474948E-37
(PID.TID 0000.0001) %MON trcstat_ptracer09_mean       =   9.9938100956144763E-02
(PID.TID 0000.0001) %MON trcstat_ptracer09_sd         =   4.0732193138476763E-01
(PID.TID 0000.0001) %MON trcstat_ptracer09_del2       =   0.0000000000000000E+00
(PID.TID 0000.0001) %MON trcstat_ptracer10_max        =   1.5287012718178469E-01
(PID.TID 0000.0001) %MON trcstat_ptracer10_min        =   6.4128444046718423E-39
(PID.TID 0000.0001) %MON trcstat_ptracer10_mean       =   6.2461313097590477E-03
(PID.TID 0000.0001) %MON trcstat_ptracer10_sd         =   2.5457620711547977E-02
(PID.TID 0000.0001) %MON trcstat_ptracer10_del2       =   0.0000000000000000E+00
(PID.TID 0000.0001) %MON trcstat_ptracer11_max        =   1.5287012450455141E-04
(PID.TID 0000.0001) %MON trcstat_ptracer11_min        =   6.4128423860386040E-42
(PID.TID 0000.0001) %MON trcstat_ptracer11_mean       =   6.2461313115685590E-06
(PID.TID 0000.0001) %MON trcstat_ptracer11_sd         =   2.5457620647440177E-05
(PID.TID 0000.0001) %MON trcstat_ptracer11_del2       =   0.0000000000000000E+00
(PID.TID 0000.0001) %MON trcstat_ptracer12_max        =   3.1778202577464505E+00
(PID.TID 0000.0001) %MON trcstat_ptracer12_min        =   3.9098068433143715E-03
(PID.TID 0000.0001) %MON trcstat_ptracer12_mean       =   5.6706248136833248E-01
(PID.TID 0000.0001) %MON trcstat_ptracer12_sd         =   9.2152114800258655E-01
(PID.TID 0000.0001) %MON trcstat_ptracer12_del2       =   0.0000000000000000E+00
(PID.TID 0000.0001) %MON trcstat_ptracer13_max        =   4.2370936769952672E-01
(PID.TID 0000.0001) %MON trcstat_ptracer13_min        =   5.2130757910858285E-04
(PID.TID 0000.0001) %MON trcstat_ptracer13_mean       =   7.5608330849111005E-02
(PID.TID 0000.0001) %MON trcstat_ptracer13_sd         =   1.2286948640034487E-01
(PID.TID 0000.0001) %MON trcstat_ptracer13_del2       =   0.0000000000000000E+00
(PID.TID 0000.0001) %MON trcstat_ptracer14_max        =   2.6481835481220420E-02
(PID.TID 0000.0001) %MON trcstat_ptracer14_min        =   3.2581723694286428E-05
(PID.TID 0000.0001) %MON trcstat_ptracer14_mean       =   4.7255206780694378E-03
(PID.TID 0000.0001) %MON trcstat_ptracer14_sd         =   7.6793429000215543E-03
(PID.TID 0000.0001) %MON trcstat_ptracer14_del2       =   0.0000000000000000E+00
(PID.TID 0000.0001) %MON trcstat_ptracer15_max        =   1.7430795516470916E-04
(PID.TID 0000.0001) %MON trcstat_ptracer15_min        =   1.4485111492238748E-10
(PID.TID 0000.0001) %MON trcstat_ptracer15_mean       =   8.0077774313495130E-05
(PID.TID 0000.0001) %MON trcstat_ptracer15_sd         =   6.8159436320158656E-05
(PID.TID 0000.0001) %MON trcstat_ptracer15_del2       =   0.0000000000000000E+00
(PID.TID 0000.0001) %MON trcstat_ptracer16_max        =   2.6481833691757108E-05
(PID.TID 0000.0001) %MON trcstat_ptracer16_min        =   3.2581726785856190E-08
(PID.TID 0000.0001) %MON trcstat_ptracer16_mean       =   4.7255205738497222E-06
(PID.TID 0000.0001) %MON trcstat_ptracer16_sd         =   7.6793426873004306E-06
(PID.TID 0000.0001) %MON trcstat_ptracer16_del2       =   0.0000000000000000E+00
(PID.TID 0000.0001) %MON trcstat_ptracer17_max        =                      NAN
(PID.TID 0000.0001) %MON trcstat_ptracer17_min        =                      NAN
(PID.TID 0000.0001) %MON trcstat_ptracer17_mean       =                      NAN
(PID.TID 0000.0001) %MON trcstat_ptracer17_sd         =                      NAN
(PID.TID 0000.0001) %MON trcstat_ptracer17_del2       =                      NAN
(PID.TID 0000.0001) %MON trcstat_ptracer18_max        =   6.8660734843658524E-04
(PID.TID 0000.0001) %MON trcstat_ptracer18_min        =   1.2907494941255669E-67
(PID.TID 0000.0001) %MON trcstat_ptracer18_mean       =   2.0915057470873057E-05
(PID.TID 0000.0001) %MON trcstat_ptracer18_sd         =   9.3111232657243104E-05
(PID.TID 0000.0001) %MON trcstat_ptracer18_del2       =   0.0000000000000000E+00
(PID.TID 0000.0001) %MON trcstat_ptracer19_max        =   6.8296033261588517E-04
(PID.TID 0000.0001) %MON trcstat_ptracer19_min        =   3.7651598483856087E-72
(PID.TID 0000.0001) %MON trcstat_ptracer19_mean       =   2.0696944929090977E-05
(PID.TID 0000.0001) %MON trcstat_ptracer19_sd         =   9.1632669362835836E-05
(PID.TID 0000.0001) %MON trcstat_ptracer19_del2       =   0.0000000000000000E+00
(PID.TID 0000.0001) %MON trcstat_ptracer20_max        =   2.8405729413750578E+00
(PID.TID 0000.0001) %MON trcstat_ptracer20_min        =   1.6521798478985432E-69
(PID.TID 0000.0001) %MON trcstat_ptracer20_mean       =   8.2459264647474315E-02
(PID.TID 0000.0001) %MON trcstat_ptracer20_sd         =   4.2466141840043398E-01
(PID.TID 0000.0001) %MON trcstat_ptracer20_del2       =   0.0000000000000000E+00
(PID.TID 0000.0001) %MON trcstat_ptracer21_max        =   2.8405735855776504E+00
(PID.TID 0000.0001) %MON trcstat_ptracer21_min        =   1.6521798481374555E-69
(PID.TID 0000.0001) %MON trcstat_ptracer21_mean       =   8.2459278464468766E-02
(PID.TID 0000.0001) %MON trcstat_ptracer21_sd         =   4.2466150084635990E-01
(PID.TID 0000.0001) %MON trcstat_ptracer21_del2       =   0.0000000000000000E+00
(PID.TID 0000.0001) %MON time_tsnumber                =                     3
(PID.TID 0000.0001) %MON time_secondsf                =   1.0800000000000000E+04
(PID.TID 0000.0001) %MON dynstat_eta_max              =   0.0000000000000000E+00
(PID.TID 0000.0001) %MON dynstat_eta_min              =   0.0000000000000000E+00
(PID.TID 0000.0001) %MON dynstat_eta_mean             =   0.0000000000000000E+00
(PID.TID 0000.0001) %MON dynstat_eta_sd               =   0.0000000000000000E+00
(PID.TID 0000.0001) %MON dynstat_eta_del2             =   0.0000000000000000E+00
(PID.TID 0000.0001) %MON dynstat_uvel_max             =   0.0000000000000000E+00
(PID.TID 0000.0001) %MON dynstat_uvel_min             =   0.0000000000000000E+00
(PID.TID 0000.0001) %MON dynstat_uvel_mean            =   0.0000000000000000E+00
(PID.TID 0000.0001) %MON dynstat_uvel_sd              =   0.0000000000000000E+00
(PID.TID 0000.0001) %MON dynstat_uvel_del2            =   0.0000000000000000E+00
(PID.TID 0000.0001) %MON dynstat_vvel_max             =   0.0000000000000000E+00
(PID.TID 0000.0001) %MON dynstat_vvel_min             =   0.0000000000000000E+00
(PID.TID 0000.0001) %MON dynstat_vvel_mean            =   0.0000000000000000E+00
(PID.TID 0000.0001) %MON dynstat_vvel_sd              =   0.0000000000000000E+00
(PID.TID 0000.0001) %MON dynstat_vvel_del2            =   0.0000000000000000E+00
(PID.TID 0000.0001) %MON dynstat_wvel_max             =   0.0000000000000000E+00
(PID.TID 0000.0001) %MON dynstat_wvel_min             =   0.0000000000000000E+00
(PID.TID 0000.0001) %MON dynstat_wvel_mean            =   0.0000000000000000E+00
(PID.TID 0000.0001) %MON dynstat_wvel_sd              =   0.0000000000000000E+00
(PID.TID 0000.0001) %MON dynstat_wvel_del2            =   0.0000000000000000E+00
(PID.TID 0000.0001) %MON dynstat_theta_max            =   8.2616915570573877E+00
(PID.TID 0000.0001) %MON dynstat_theta_min            =   1.5167018429027368E+00
(PID.TID 0000.0001) %MON dynstat_theta_mean           =   2.8238551634290574E+00
(PID.TID 0000.0001) %MON dynstat_theta_sd             =   1.3641186209026439E+00
(PID.TID 0000.0001) %MON dynstat_theta_del2           =   0.0000000000000000E+00
(PID.TID 0000.0001) %MON dynstat_salt_max             =   3.5000000000000000E+01
(PID.TID 0000.0001) %MON dynstat_salt_min             =   3.5000000000000000E+01
(PID.TID 0000.0001) %MON dynstat_salt_mean            =   3.4999999999999986E+01
(PID.TID 0000.0001) %MON dynstat_salt_sd              =   1.4210854715202004E-14
(PID.TID 0000.0001) %MON dynstat_salt_del2            =   0.0000000000000000E+00
(PID.TID 0000.0001) %MON dynstat_sst_max              =   8.2616915570573877E+00
(PID.TID 0000.0001) %MON dynstat_sst_min              =   8.2616915570573877E+00
(PID.TID 0000.0001) %MON dynstat_sst_mean             =   8.2616915570573877E+00
(PID.TID 0000.0001) %MON dynstat_sst_sd               =   0.0000000000000000E+00
(PID.TID 0000.0001) %MON dynstat_sst_del2             =   0.0000000000000000E+00
(PID.TID 0000.0001) %MON dynstat_sss_max              =   3.5000000000000000E+01
(PID.TID 0000.0001) %MON dynstat_sss_min              =   3.5000000000000000E+01
(PID.TID 0000.0001) %MON dynstat_sss_mean             =   3.5000000000000000E+01
(PID.TID 0000.0001) %MON dynstat_sss_sd               =   0.0000000000000000E+00
(PID.TID 0000.0001) %MON dynstat_sss_del2             =   0.0000000000000000E+00
(PID.TID 0000.0001) %MON forcing_qnet_max             =   0.0000000000000000E+00
(PID.TID 0000.0001) %MON forcing_qnet_min             =   0.0000000000000000E+00
(PID.TID 0000.0001) %MON forcing_qnet_mean            =   0.0000000000000000E+00
(PID.TID 0000.0001) %MON forcing_qnet_sd              =   0.0000000000000000E+00
(PID.TID 0000.0001) %MON forcing_qnet_del2            =   0.0000000000000000E+00
(PID.TID 0000.0001) %MON forcing_qsw_max              =   0.0000000000000000E+00
(PID.TID 0000.0001) %MON forcing_qsw_min              =   0.0000000000000000E+00
(PID.TID 0000.0001) %MON forcing_qsw_mean             =   0.0000000000000000E+00
(PID.TID 0000.0001) %MON forcing_qsw_sd               =   0.0000000000000000E+00
(PID.TID 0000.0001) %MON forcing_qsw_del2             =   0.0000000000000000E+00
(PID.TID 0000.0001) %MON forcing_empmr_max            =   0.0000000000000000E+00
(PID.TID 0000.0001) %MON forcing_empmr_min            =   0.0000000000000000E+00
(PID.TID 0000.0001) %MON forcing_empmr_mean           =   0.0000000000000000E+00
(PID.TID 0000.0001) %MON forcing_empmr_sd             =   0.0000000000000000E+00
(PID.TID 0000.0001) %MON forcing_empmr_del2           =   0.0000000000000000E+00
(PID.TID 0000.0001) %MON forcing_fu_max               =   2.2648139112525518E+00
(PID.TID 0000.0001) %MON forcing_fu_min               =   2.2648139112525518E+00
(PID.TID 0000.0001) %MON forcing_fu_mean              =   2.2648139112525518E+00
(PID.TID 0000.0001) %MON forcing_fu_sd                =   0.0000000000000000E+00
(PID.TID 0000.0001) %MON forcing_fu_del2              =   0.0000000000000000E+00
(PID.TID 0000.0001) %MON forcing_fv_max               =  -4.1325000251332922E-01
(PID.TID 0000.0001) %MON forcing_fv_min               =  -4.1325000251332922E-01
(PID.TID 0000.0001) %MON forcing_fv_mean              =  -4.1325000251332922E-01
(PID.TID 0000.0001) %MON forcing_fv_sd                =   0.0000000000000000E+00
(PID.TID 0000.0001) %MON forcing_fv_del2              =   0.0000000000000000E+00
(PID.TID 0000.0001) %MON advcfl_uvel_max              =   0.0000000000000000E+00
(PID.TID 0000.0001) %MON advcfl_vvel_max              =   0.0000000000000000E+00
(PID.TID 0000.0001) %MON advcfl_wvel_max              =   0.0000000000000000E+00
(PID.TID 0000.0001) %MON advcfl_W_hf_max              =   0.0000000000000000E+00
(PID.TID 0000.0001) %MON pe_b_mean                    =   0.0000000000000000E+00
(PID.TID 0000.0001) %MON ke_max                       =   0.0000000000000000E+00
(PID.TID 0000.0001) %MON ke_mean                      =   0.0000000000000000E+00
(PID.TID 0000.0001) %MON ke_vol                       =   3.0811817830111180E+13
(PID.TID 0000.0001) %MON vort_r_min                   =   0.0000000000000000E+00
(PID.TID 0000.0001) %MON vort_r_max                   =   0.0000000000000000E+00
(PID.TID 0000.0001) %MON vort_a_mean                  =  -1.0312619976227577E-04
(PID.TID 0000.0001) %MON vort_a_sd                    =   2.8760747774580336E-12
(PID.TID 0000.0001) %MON vort_p_mean                  =  -1.0312619976227577E-04
(PID.TID 0000.0001) %MON vort_p_sd                    =   2.8760747774580336E-12
(PID.TID 0000.0001) %MON surfExpan_theta_mean         =   0.0000000000000000E+00
(PID.TID 0000.0001) %MON surfExpan_salt_mean          =   0.0000000000000000E+00
(PID.TID 0000.0001) %MON trcstat_ptracer01_max        =                      NAN
(PID.TID 0000.0001) %MON trcstat_ptracer01_min        =                      NAN
(PID.TID 0000.0001) %MON trcstat_ptracer01_mean       =                      NAN
(PID.TID 0000.0001) %MON trcstat_ptracer01_sd         =                      NAN
(PID.TID 0000.0001) %MON trcstat_ptracer01_del2       =                      NAN
(PID.TID 0000.0001) %MON trcstat_ptracer02_max        =   7.3483252811812161E-01
(PID.TID 0000.0001) %MON trcstat_ptracer02_min        =   5.2218220727017238E-06
(PID.TID 0000.0001) %MON trcstat_ptracer02_mean       =   2.1178169886533912E-02
(PID.TID 0000.0001) %MON trcstat_ptracer02_sd         =   1.1506198743187128E-01
(PID.TID 0000.0001) %MON trcstat_ptracer02_del2       =   0.0000000000000000E+00
(PID.TID 0000.0001) %MON trcstat_ptracer03_max        =   3.3566248654251307E-01
(PID.TID 0000.0001) %MON trcstat_ptracer03_min        =   1.1582451102972243E-04
(PID.TID 0000.0001) %MON trcstat_ptracer03_mean       =   2.6423073573350293E-02
(PID.TID 0000.0001) %MON trcstat_ptracer03_sd         =   6.3016633341545905E-02
(PID.TID 0000.0001) %MON trcstat_ptracer03_del2       =   0.0000000000000000E+00
(PID.TID 0000.0001) %MON trcstat_ptracer04_max        =   3.3950278555981249E+01
(PID.TID 0000.0001) %MON trcstat_ptracer04_min        =   1.6799180686254733E+01
(PID.TID 0000.0001) %MON trcstat_ptracer04_mean       =   3.0465856481401655E+01
(PID.TID 0000.0001) %MON trcstat_ptracer04_sd         =   3.3244747667102703E+00
(PID.TID 0000.0001) %MON trcstat_ptracer04_del2       =   0.0000000000000000E+00
(PID.TID 0000.0001) %MON trcstat_ptracer05_max        =   2.3152025789788349E+00
(PID.TID 0000.0001) %MON trcstat_ptracer05_min        =   1.0858108822161177E+00
(PID.TID 0000.0001) %MON trcstat_ptracer05_mean       =   2.0495204555405744E+00
(PID.TID 0000.0001) %MON trcstat_ptracer05_sd         =   2.5611716044906513E-01
(PID.TID 0000.0001) %MON trcstat_ptracer05_del2       =   0.0000000000000000E+00
(PID.TID 0000.0001) %MON trcstat_ptracer06_max        =   9.2368792091558561E+01
(PID.TID 0000.0001) %MON trcstat_ptracer06_min        =   4.7138639973330337E-01
(PID.TID 0000.0001) %MON trcstat_ptracer06_mean       =   6.0517938763742592E+01
(PID.TID 0000.0001) %MON trcstat_ptracer06_sd         =   2.7564390426189185E+01
(PID.TID 0000.0001) %MON trcstat_ptracer06_del2       =   0.0000000000000000E+00
(PID.TID 0000.0001) %MON trcstat_ptracer07_max        =   1.3004268586460357E-03
(PID.TID 0000.0001) %MON trcstat_ptracer07_min        =   1.2999562541076881E-03
(PID.TID 0000.0001) %MON trcstat_ptracer07_mean       =   1.2999770267086619E-03
(PID.TID 0000.0001) %MON trcstat_ptracer07_sd         =   4.9882743133392725E-08
(PID.TID 0000.0001) %MON trcstat_ptracer07_del2       =   0.0000000000000000E+00
(PID.TID 0000.0001) %MON trcstat_ptracer08_max        =   1.8341032442678959E+01
(PID.TID 0000.0001) %MON trcstat_ptracer08_min        =   2.6922721332575064E-36
(PID.TID 0000.0001) %MON trcstat_ptracer08_mean       =   7.4934955936263670E-01
(PID.TID 0000.0001) %MON trcstat_ptracer08_sd         =   3.0542597064019636E+00
(PID.TID 0000.0001) %MON trcstat_ptracer08_del2       =   0.0000000000000000E+00
(PID.TID 0000.0001) %MON trcstat_ptracer09_max        =   2.4454709923571945E+00
(PID.TID 0000.0001) %MON trcstat_ptracer09_min        =   3.5896961776766751E-37
(PID.TID 0000.0001) %MON trcstat_ptracer09_mean       =   9.9913274581684891E-02
(PID.TID 0000.0001) %MON trcstat_ptracer09_sd         =   4.0723462752026185E-01
(PID.TID 0000.0001) %MON trcstat_ptracer09_del2       =   0.0000000000000000E+00
(PID.TID 0000.0001) %MON trcstat_ptracer10_max        =   1.5284193702232465E-01
(PID.TID 0000.0001) %MON trcstat_ptracer10_min        =   2.2435601110479219E-38
(PID.TID 0000.0001) %MON trcstat_ptracer10_mean       =   6.2445796613553057E-03
(PID.TID 0000.0001) %MON trcstat_ptracer10_sd         =   2.5452164220016366E-02
(PID.TID 0000.0001) %MON trcstat_ptracer10_del2       =   0.0000000000000000E+00
(PID.TID 0000.0001) %MON trcstat_ptracer11_max        =   1.5284193434605761E-04
(PID.TID 0000.0001) %MON trcstat_ptracer11_min        =   2.2435594048209299E-41
(PID.TID 0000.0001) %MON trcstat_ptracer11_mean       =   6.2445796631640660E-06
(PID.TID 0000.0001) %MON trcstat_ptracer11_sd         =   2.5452164155943944E-05
(PID.TID 0000.0001) %MON trcstat_ptracer11_del2       =   0.0000000000000000E+00
(PID.TID 0000.0001) %MON trcstat_ptracer12_max        =   3.1737115150212261E+00
(PID.TID 0000.0001) %MON trcstat_ptracer12_min        =   3.9119764162984169E-03
(PID.TID 0000.0001) %MON trcstat_ptracer12_mean       =   5.6669313124057319E-01
(PID.TID 0000.0001) %MON trcstat_ptracer12_sd         =   9.2067310718783557E-01
(PID.TID 0000.0001) %MON trcstat_ptracer12_del2       =   0.0000000000000000E+00
(PID.TID 0000.0001) %MON trcstat_ptracer13_max        =   4.2316153533616346E-01
(PID.TID 0000.0001) %MON trcstat_ptracer13_min        =   5.2159685550645554E-04
(PID.TID 0000.0001) %MON trcstat_ptracer13_mean       =   7.5559084165409754E-02
(PID.TID 0000.0001) %MON trcstat_ptracer13_sd         =   1.2275641429171141E-01
(PID.TID 0000.0001) %MON trcstat_ptracer13_del2       =   0.0000000000000000E+00
(PID.TID 0000.0001) %MON trcstat_ptracer14_max        =   2.6447595958510216E-02
(PID.TID 0000.0001) %MON trcstat_ptracer14_min        =   3.2599803469153471E-05
(PID.TID 0000.0001) %MON trcstat_ptracer14_mean       =   4.7224427603381096E-03
(PID.TID 0000.0001) %MON trcstat_ptracer14_sd         =   7.6722758932319633E-03
(PID.TID 0000.0001) %MON trcstat_ptracer14_del2       =   0.0000000000000000E+00
(PID.TID 0000.0001) %MON trcstat_ptracer15_max        =   1.7441745024587211E-04
(PID.TID 0000.0001) %MON trcstat_ptracer15_min        =   1.4453459035139317E-10
(PID.TID 0000.0001) %MON trcstat_ptracer15_mean       =   8.0066652400396037E-05
(PID.TID 0000.0001) %MON trcstat_ptracer15_sd         =   6.8171763241490512E-05
(PID.TID 0000.0001) %MON trcstat_ptracer15_del2       =   0.0000000000000000E+00
(PID.TID 0000.0001) %MON trcstat_ptracer16_max        =   2.6447594170781020E-05
(PID.TID 0000.0001) %MON trcstat_ptracer16_min        =   3.2599806557524112E-08
(PID.TID 0000.0001) %MON trcstat_ptracer16_mean       =   4.7224426562052450E-06
(PID.TID 0000.0001) %MON trcstat_ptracer16_sd         =   7.6722756807841773E-06
(PID.TID 0000.0001) %MON trcstat_ptracer16_del2       =   0.0000000000000000E+00
(PID.TID 0000.0001) %MON trcstat_ptracer17_max        =                      NAN
(PID.TID 0000.0001) %MON trcstat_ptracer17_min        =                      NAN
(PID.TID 0000.0001) %MON trcstat_ptracer17_mean       =                      NAN
(PID.TID 0000.0001) %MON trcstat_ptracer17_sd         =                      NAN
(PID.TID 0000.0001) %MON trcstat_ptracer17_del2       =                      NAN
(PID.TID 0000.0001) %MON trcstat_ptracer18_max        =   6.9438680277516868E-04
(PID.TID 0000.0001) %MON trcstat_ptracer18_min        =   7.9365185828171461E-65
(PID.TID 0000.0001) %MON trcstat_ptracer18_mean       =   2.1049020636764309E-05
(PID.TID 0000.0001) %MON trcstat_ptracer18_sd         =   9.4152515462549735E-05
(PID.TID 0000.0001) %MON trcstat_ptracer18_del2       =   0.0000000000000000E+00
(PID.TID 0000.0001) %MON trcstat_ptracer19_max        =   6.8886049567291505E-04
(PID.TID 0000.0001) %MON trcstat_ptracer19_min        =   2.4448011304335556E-71
(PID.TID 0000.0001) %MON trcstat_ptracer19_mean       =   2.0718594215738626E-05
(PID.TID 0000.0001) %MON trcstat_ptracer19_sd         =   9.1903558838174579E-05
(PID.TID 0000.0001) %MON trcstat_ptracer19_del2       =   0.0000000000000000E+00
(PID.TID 0000.0001) %MON trcstat_ptracer20_max        =   2.8365633965625001E+00
(PID.TID 0000.0001) %MON trcstat_ptracer20_min        =   1.0724239384039517E-68
(PID.TID 0000.0001) %MON trcstat_ptracer20_mean       =   8.2344774702975576E-02
(PID.TID 0000.0001) %MON trcstat_ptracer20_sd         =   4.2406939020849810E-01
(PID.TID 0000.0001) %MON trcstat_ptracer20_del2       =   0.0000000000000000E+00
(PID.TID 0000.0001) %MON trcstat_ptracer21_max        =   2.8365643962421263E+00
(PID.TID 0000.0001) %MON trcstat_ptracer21_min        =   1.0724239387141026E-68
(PID.TID 0000.0001) %MON trcstat_ptracer21_mean       =   8.2344795805563975E-02
(PID.TID 0000.0001) %MON trcstat_ptracer21_sd         =   4.2406951635627249E-01
(PID.TID 0000.0001) %MON trcstat_ptracer21_del2       =   0.0000000000000000E+00
(PID.TID 0000.0001) %MON time_tsnumber                =                     4
(PID.TID 0000.0001) %MON time_secondsf                =   1.4400000000000000E+04
(PID.TID 0000.0001) %MON dynstat_eta_max              =   0.0000000000000000E+00
(PID.TID 0000.0001) %MON dynstat_eta_min              =   0.0000000000000000E+00
(PID.TID 0000.0001) %MON dynstat_eta_mean             =   0.0000000000000000E+00
(PID.TID 0000.0001) %MON dynstat_eta_sd               =   0.0000000000000000E+00
(PID.TID 0000.0001) %MON dynstat_eta_del2             =   0.0000000000000000E+00
(PID.TID 0000.0001) %MON dynstat_uvel_max             =   0.0000000000000000E+00
(PID.TID 0000.0001) %MON dynstat_uvel_min             =   0.0000000000000000E+00
(PID.TID 0000.0001) %MON dynstat_uvel_mean            =   0.0000000000000000E+00
(PID.TID 0000.0001) %MON dynstat_uvel_sd              =   0.0000000000000000E+00
(PID.TID 0000.0001) %MON dynstat_uvel_del2            =   0.0000000000000000E+00
(PID.TID 0000.0001) %MON dynstat_vvel_max             =   0.0000000000000000E+00
(PID.TID 0000.0001) %MON dynstat_vvel_min             =   0.0000000000000000E+00
(PID.TID 0000.0001) %MON dynstat_vvel_mean            =   0.0000000000000000E+00
(PID.TID 0000.0001) %MON dynstat_vvel_sd              =   0.0000000000000000E+00
(PID.TID 0000.0001) %MON dynstat_vvel_del2            =   0.0000000000000000E+00
(PID.TID 0000.0001) %MON dynstat_wvel_max             =   0.0000000000000000E+00
(PID.TID 0000.0001) %MON dynstat_wvel_min             =   0.0000000000000000E+00
(PID.TID 0000.0001) %MON dynstat_wvel_mean            =   0.0000000000000000E+00
(PID.TID 0000.0001) %MON dynstat_wvel_sd              =   0.0000000000000000E+00
(PID.TID 0000.0001) %MON dynstat_wvel_del2            =   0.0000000000000000E+00
(PID.TID 0000.0001) %MON dynstat_theta_max            =   8.2508948224563863E+00
(PID.TID 0000.0001) %MON dynstat_theta_min            =   1.5167024474105579E+00
(PID.TID 0000.0001) %MON dynstat_theta_mean           =   2.8238325601456404E+00
(PID.TID 0000.0001) %MON dynstat_theta_sd             =   1.3640210027633008E+00
(PID.TID 0000.0001) %MON dynstat_theta_del2           =   0.0000000000000000E+00
(PID.TID 0000.0001) %MON dynstat_salt_max             =   3.5000000000000000E+01
(PID.TID 0000.0001) %MON dynstat_salt_min             =   3.5000000000000000E+01
(PID.TID 0000.0001) %MON dynstat_salt_mean            =   3.4999999999999986E+01
(PID.TID 0000.0001) %MON dynstat_salt_sd              =   1.4210854715202004E-14
(PID.TID 0000.0001) %MON dynstat_salt_del2            =   0.0000000000000000E+00
(PID.TID 0000.0001) %MON dynstat_sst_max              =   8.2508948224563863E+00
(PID.TID 0000.0001) %MON dynstat_sst_min              =   8.2508948224563863E+00
(PID.TID 0000.0001) %MON dynstat_sst_mean             =   8.2508948224563863E+00
(PID.TID 0000.0001) %MON dynstat_sst_sd               =   0.0000000000000000E+00
(PID.TID 0000.0001) %MON dynstat_sst_del2             =   0.0000000000000000E+00
(PID.TID 0000.0001) %MON dynstat_sss_max              =   3.5000000000000000E+01
(PID.TID 0000.0001) %MON dynstat_sss_min              =   3.5000000000000000E+01
(PID.TID 0000.0001) %MON dynstat_sss_mean             =   3.5000000000000000E+01
(PID.TID 0000.0001) %MON dynstat_sss_sd               =   0.0000000000000000E+00
(PID.TID 0000.0001) %MON dynstat_sss_del2             =   0.0000000000000000E+00
(PID.TID 0000.0001) %MON forcing_qnet_max             =   0.0000000000000000E+00
(PID.TID 0000.0001) %MON forcing_qnet_min             =   0.0000000000000000E+00
(PID.TID 0000.0001) %MON forcing_qnet_mean            =   0.0000000000000000E+00
(PID.TID 0000.0001) %MON forcing_qnet_sd              =   0.0000000000000000E+00
(PID.TID 0000.0001) %MON forcing_qnet_del2            =   0.0000000000000000E+00
(PID.TID 0000.0001) %MON forcing_qsw_max              =   0.0000000000000000E+00
(PID.TID 0000.0001) %MON forcing_qsw_min              =   0.0000000000000000E+00
(PID.TID 0000.0001) %MON forcing_qsw_mean             =   0.0000000000000000E+00
(PID.TID 0000.0001) %MON forcing_qsw_sd               =   0.0000000000000000E+00
(PID.TID 0000.0001) %MON forcing_qsw_del2             =   0.0000000000000000E+00
(PID.TID 0000.0001) %MON forcing_empmr_max            =   0.0000000000000000E+00
(PID.TID 0000.0001) %MON forcing_empmr_min            =   0.0000000000000000E+00
(PID.TID 0000.0001) %MON forcing_empmr_mean           =   0.0000000000000000E+00
(PID.TID 0000.0001) %MON forcing_empmr_sd             =   0.0000000000000000E+00
(PID.TID 0000.0001) %MON forcing_empmr_del2           =   0.0000000000000000E+00
(PID.TID 0000.0001) %MON forcing_fu_max               =   2.2649708559115727E+00
(PID.TID 0000.0001) %MON forcing_fu_min               =   2.2649708559115727E+00
(PID.TID 0000.0001) %MON forcing_fu_mean              =   2.2649708559115727E+00
(PID.TID 0000.0001) %MON forcing_fu_sd                =   0.0000000000000000E+00
(PID.TID 0000.0001) %MON forcing_fu_del2              =   0.0000000000000000E+00
(PID.TID 0000.0001) %MON forcing_fv_max               =  -4.1337500251829623E-01
(PID.TID 0000.0001) %MON forcing_fv_min               =  -4.1337500251829623E-01
(PID.TID 0000.0001) %MON forcing_fv_mean              =  -4.1337500251829623E-01
(PID.TID 0000.0001) %MON forcing_fv_sd                =   0.0000000000000000E+00
(PID.TID 0000.0001) %MON forcing_fv_del2              =   0.0000000000000000E+00
(PID.TID 0000.0001) %MON advcfl_uvel_max              =   0.0000000000000000E+00
(PID.TID 0000.0001) %MON advcfl_vvel_max              =   0.0000000000000000E+00
(PID.TID 0000.0001) %MON advcfl_wvel_max              =   0.0000000000000000E+00
(PID.TID 0000.0001) %MON advcfl_W_hf_max              =   0.0000000000000000E+00
(PID.TID 0000.0001) %MON pe_b_mean                    =   0.0000000000000000E+00
(PID.TID 0000.0001) %MON ke_max                       =   0.0000000000000000E+00
(PID.TID 0000.0001) %MON ke_mean                      =   0.0000000000000000E+00
(PID.TID 0000.0001) %MON ke_vol                       =   3.0811817830111180E+13
(PID.TID 0000.0001) %MON vort_r_min                   =   0.0000000000000000E+00
(PID.TID 0000.0001) %MON vort_r_max                   =   0.0000000000000000E+00
(PID.TID 0000.0001) %MON vort_a_mean                  =  -1.0312619976227577E-04
(PID.TID 0000.0001) %MON vort_a_sd                    =   2.8760747774580336E-12
(PID.TID 0000.0001) %MON vort_p_mean                  =  -1.0312619976227577E-04
(PID.TID 0000.0001) %MON vort_p_sd                    =   2.8760747774580336E-12
(PID.TID 0000.0001) %MON surfExpan_theta_mean         =   0.0000000000000000E+00
(PID.TID 0000.0001) %MON surfExpan_salt_mean          =   0.0000000000000000E+00
(PID.TID 0000.0001) %MON trcstat_ptracer01_max        =                      NAN
(PID.TID 0000.0001) %MON trcstat_ptracer01_min        =                      NAN
(PID.TID 0000.0001) %MON trcstat_ptracer01_mean       =                      NAN
(PID.TID 0000.0001) %MON trcstat_ptracer01_sd         =                      NAN
(PID.TID 0000.0001) %MON trcstat_ptracer01_del2       =                      NAN
(PID.TID 0000.0001) %MON trcstat_ptracer02_max        =   7.3594443831696676E-01
(PID.TID 0000.0001) %MON trcstat_ptracer02_min        =   5.2213347753583838E-06
(PID.TID 0000.0001) %MON trcstat_ptracer02_mean       =   2.1189904901731366E-02
(PID.TID 0000.0001) %MON trcstat_ptracer02_sd         =   1.1521772885960406E-01
(PID.TID 0000.0001) %MON trcstat_ptracer02_del2       =   0.0000000000000000E+00
(PID.TID 0000.0001) %MON trcstat_ptracer03_max        =   3.3942076514917596E-01
(PID.TID 0000.0001) %MON trcstat_ptracer03_min        =   1.1577706924623117E-04
(PID.TID 0000.0001) %MON trcstat_ptracer03_mean       =   2.6444320683030435E-02
(PID.TID 0000.0001) %MON trcstat_ptracer03_sd         =   6.3099499244481369E-02
(PID.TID 0000.0001) %MON trcstat_ptracer03_del2       =   0.0000000000000000E+00
(PID.TID 0000.0001) %MON trcstat_ptracer04_max        =   3.3950305117557036E+01
(PID.TID 0000.0001) %MON trcstat_ptracer04_min        =   1.6869943956577156E+01
(PID.TID 0000.0001) %MON trcstat_ptracer04_mean       =   3.0465928029263861E+01
(PID.TID 0000.0001) %MON trcstat_ptracer04_sd         =   3.3243914468060756E+00
(PID.TID 0000.0001) %MON trcstat_ptracer04_del2       =   0.0000000000000000E+00
(PID.TID 0000.0001) %MON trcstat_ptracer05_max        =   2.3152034102186443E+00
(PID.TID 0000.0001) %MON trcstat_ptracer05_min        =   1.0873972964851049E+00
(PID.TID 0000.0001) %MON trcstat_ptracer05_mean       =   2.0495269886647667E+00
(PID.TID 0000.0001) %MON trcstat_ptracer05_sd         =   2.5610440226001474E-01
(PID.TID 0000.0001) %MON trcstat_ptracer05_del2       =   0.0000000000000000E+00
(PID.TID 0000.0001) %MON trcstat_ptracer06_max        =   9.2368790354693900E+01
(PID.TID 0000.0001) %MON trcstat_ptracer06_min        =   4.8377684675114824E-01
(PID.TID 0000.0001) %MON trcstat_ptracer06_mean       =   6.0517938774862948E+01
(PID.TID 0000.0001) %MON trcstat_ptracer06_sd         =   2.7564388520116228E+01
(PID.TID 0000.0001) %MON trcstat_ptracer06_del2       =   0.0000000000000000E+00
(PID.TID 0000.0001) %MON trcstat_ptracer07_max        =   1.3005214090050393E-03
(PID.TID 0000.0001) %MON trcstat_ptracer07_min        =   1.2999416722816821E-03
(PID.TID 0000.0001) %MON trcstat_ptracer07_mean       =   1.2999693619403245E-03
(PID.TID 0000.0001) %MON trcstat_ptracer07_sd         =   6.5961489461603566E-08
(PID.TID 0000.0001) %MON trcstat_ptracer07_del2       =   0.0000000000000000E+00
(PID.TID 0000.0001) %MON trcstat_ptracer08_max        =   1.8337628453290254E+01
(PID.TID 0000.0001) %MON trcstat_ptracer08_min        =   7.1764002250143469E-36
(PID.TID 0000.0001) %MON trcstat_ptracer08_mean       =   7.4916326467950656E-01
(PID.TID 0000.0001) %MON trcstat_ptracer08_sd         =   3.0536043450793411E+00
(PID.TID 0000.0001) %MON trcstat_ptracer08_del2       =   0.0000000000000000E+00
(PID.TID 0000.0001) %MON trcstat_ptracer09_max        =   2.4450171271053671E+00
(PID.TID 0000.0001) %MON trcstat_ptracer09_min        =   9.5685336333524622E-37
(PID.TID 0000.0001) %MON trcstat_ptracer09_mean       =   9.9888435290600874E-02
(PID.TID 0000.0001) %MON trcstat_ptracer09_sd         =   4.0714724601057883E-01
(PID.TID 0000.0001) %MON trcstat_ptracer09_del2       =   0.0000000000000000E+00
(PID.TID 0000.0001) %MON trcstat_ptracer10_max        =   1.5281357044408544E-01
(PID.TID 0000.0001) %MON trcstat_ptracer10_min        =   5.9803335208452889E-38
(PID.TID 0000.0001) %MON trcstat_ptracer10_mean       =   6.2430272056625546E-03
(PID.TID 0000.0001) %MON trcstat_ptracer10_sd         =   2.5446702875661177E-02
(PID.TID 0000.0001) %MON trcstat_ptracer10_del2       =   0.0000000000000000E+00
(PID.TID 0000.0001) %MON trcstat_ptracer11_max        =   1.5281356776424029E-04
(PID.TID 0000.0001) %MON trcstat_ptracer11_min        =   5.9803316383586938E-41
(PID.TID 0000.0001) %MON trcstat_ptracer11_mean       =   6.2430272074705602E-06
(PID.TID 0000.0001) %MON trcstat_ptracer11_sd         =   2.5446702811620858E-05
(PID.TID 0000.0001) %MON trcstat_ptracer11_del2       =   0.0000000000000000E+00
(PID.TID 0000.0001) %MON trcstat_ptracer12_max        =   3.1695993144516441E+00
(PID.TID 0000.0001) %MON trcstat_ptracer12_min        =   3.9141446121139919E-03
(PID.TID 0000.0001) %MON trcstat_ptracer12_mean       =   5.6632394651157769E-01
(PID.TID 0000.0001) %MON trcstat_ptracer12_sd         =   9.1982524783690489E-01
(PID.TID 0000.0001) %MON trcstat_ptracer12_del2       =   0.0000000000000000E+00
(PID.TID 0000.0001) %MON trcstat_ptracer13_max        =   4.2261324192688587E-01
(PID.TID 0000.0001) %MON trcstat_ptracer13_min        =   5.2188594828186561E-04
(PID.TID 0000.0001) %MON trcstat_ptracer13_mean       =   7.5509859534877030E-02
(PID.TID 0000.0001) %MON trcstat_ptracer13_sd         =   1.2264336637825399E-01
(PID.TID 0000.0001) %MON trcstat_ptracer13_del2       =   0.0000000000000000E+00
(PID.TID 0000.0001) %MON trcstat_ptracer14_max        =   2.6413327620430367E-02
(PID.TID 0000.0001) %MON trcstat_ptracer14_min        =   3.2617871767616601E-05
(PID.TID 0000.0001) %MON trcstat_ptracer14_mean       =   4.7193662209298144E-03
(PID.TID 0000.0001) %MON trcstat_ptracer14_sd         =   7.6652103986408742E-03
(PID.TID 0000.0001) %MON trcstat_ptracer14_del2       =   0.0000000000000000E+00
(PID.TID 0000.0001) %MON trcstat_ptracer15_max        =   1.7452688916177642E-04
(PID.TID 0000.0001) %MON trcstat_ptracer15_min        =   1.4428327888541016E-10
(PID.TID 0000.0001) %MON trcstat_ptracer15_mean       =   8.0055532032007119E-05
(PID.TID 0000.0001) %MON trcstat_ptracer15_sd         =   6.8184116204537471E-05
(PID.TID 0000.0001) %MON trcstat_ptracer15_del2       =   0.0000000000000000E+00
(PID.TID 0000.0001) %MON trcstat_ptracer16_max        =   2.6413325835379825E-05
(PID.TID 0000.0001) %MON trcstat_ptracer16_min        =   3.2617874852787551E-08
(PID.TID 0000.0001) %MON trcstat_ptracer16_mean       =   4.7193661168837268E-06
(PID.TID 0000.0001) %MON trcstat_ptracer16_sd         =   7.6652101864669153E-06
(PID.TID 0000.0001) %MON trcstat_ptracer16_del2       =   0.0000000000000000E+00
(PID.TID 0000.0001) %MON trcstat_ptracer17_max        =                      NAN
(PID.TID 0000.0001) %MON trcstat_ptracer17_min        =                      NAN
(PID.TID 0000.0001) %MON trcstat_ptracer17_mean       =                      NAN
(PID.TID 0000.0001) %MON trcstat_ptracer17_sd         =                      NAN
(PID.TID 0000.0001) %MON trcstat_ptracer17_del2       =                      NAN
(PID.TID 0000.0001) %MON trcstat_ptracer18_max        =   7.0217277776688143E-04
(PID.TID 0000.0001) %MON trcstat_ptracer18_min        =   2.7843292067231742E-62
(PID.TID 0000.0001) %MON trcstat_ptracer18_mean       =   2.1185660305267703E-05
(PID.TID 0000.0001) %MON trcstat_ptracer18_sd         =   9.5216664329077607E-05
(PID.TID 0000.0001) %MON trcstat_ptracer18_del2       =   0.0000000000000000E+00
(PID.TID 0000.0001) %MON trcstat_ptracer19_max        =   6.9466880918672876E-04
(PID.TID 0000.0001) %MON trcstat_ptracer19_min        =   1.1397172869092375E-70
(PID.TID 0000.0001) %MON trcstat_ptracer19_mean       =   2.0740601854414354E-05
(PID.TID 0000.0001) %MON trcstat_ptracer19_sd         =   9.2174961383092481E-05
(PID.TID 0000.0001) %MON trcstat_ptracer19_del2       =   0.0000000000000000E+00
(PID.TID 0000.0001) %MON trcstat_ptracer20_max        =   2.8326053361996171E+00
(PID.TID 0000.0001) %MON trcstat_ptracer20_min        =   4.9976875722992003E-68
(PID.TID 0000.0001) %MON trcstat_ptracer20_mean       =   8.2230443862692806E-02
(PID.TID 0000.0001) %MON trcstat_ptracer20_sd         =   4.2347818884627270E-01
(PID.TID 0000.0001) %MON trcstat_ptracer20_del2       =   0.0000000000000000E+00
(PID.TID 0000.0001) %MON trcstat_ptracer21_max        =   2.8326067130371726E+00
(PID.TID 0000.0001) %MON trcstat_ptracer21_min        =   4.9976875744672116E-68
(PID.TID 0000.0001) %MON trcstat_ptracer21_mean       =   8.2230472507586264E-02
(PID.TID 0000.0001) %MON trcstat_ptracer21_sd         =   4.2347836038273923E-01
(PID.TID 0000.0001) %MON trcstat_ptracer21_del2       =   0.0000000000000000E+00
