(PID.TID 0000.0001) %MON XC_max                       =   3.3550000000000000E+02
(PID.TID 0000.0001) %MON XC_min                       =   3.3550000000000000E+02
(PID.TID 0000.0001) %MON XC_mean                      =   3.3550000000000000E+02
(PID.TID 0000.0001) %MON XC_sd                        =   0.0000000000000000E+00
(PID.TID 0000.0001) %MON XG_max                       =   3.3500000000000000E+02
(PID.TID 0000.0001) %MON XG_min                       =   3.3500000000000000E+02
(PID.TID 0000.0001) %MON XG_mean                      =   3.3500000000000000E+02
(PID.TID 0000.0001) %MON XG_sd                        =   0.0000000000000000E+00
(PID.TID 0000.0001) %MON DXC_max                      =   1.0603184087719869E+05
(PID.TID 0000.0001) %MON DXC_min                      =   1.0603184087719869E+05
(PID.TID 0000.0001) %MON DXC_mean                     =   1.0603184087719869E+05
(PID.TID 0000.0001) %MON DXC_sd                       =   0.0000000000000000E+00
(PID.TID 0000.0001) %MON DXF_max                      =   1.0603184087719869E+05
(PID.TID 0000.0001) %MON DXF_min                      =   1.0603184087719869E+05
(PID.TID 0000.0001) %MON DXF_mean                     =   1.0603184087719869E+05
(PID.TID 0000.0001) %MON DXF_sd                       =   0.0000000000000000E+00
(PID.TID 0000.0001) %MON DXG_max                      =   1.0573606049668728E+05
(PID.TID 0000.0001) %MON DXG_min                      =   1.0573606049668728E+05
(PID.TID 0000.0001) %MON DXG_mean                     =   1.0573606049668728E+05
(PID.TID 0000.0001) %MON DXG_sd                       =   0.0000000000000000E+00
(PID.TID 0000.0001) %MON DXV_max                      =   1.0573606049668728E+05
(PID.TID 0000.0001) %MON DXV_min                      =   1.0573606049668728E+05
(PID.TID 0000.0001) %MON DXV_mean                     =   1.0573606049668728E+05
(PID.TID 0000.0001) %MON DXV_sd                       =   0.0000000000000000E+00
(PID.TID 0000.0001) %MON YC_max                       =  -1.7500000000000000E+01
(PID.TID 0000.0001) %MON YC_min                       =  -1.7500000000000000E+01
(PID.TID 0000.0001) %MON YC_mean                      =  -1.7500000000000000E+01
(PID.TID 0000.0001) %MON YC_sd                        =   0.0000000000000000E+00
(PID.TID 0000.0001) %MON YG_max                       =  -1.8000000000000000E+01
(PID.TID 0000.0001) %MON YG_min                       =  -1.8000000000000000E+01
(PID.TID 0000.0001) %MON YG_mean                      =  -1.8000000000000000E+01
(PID.TID 0000.0001) %MON YG_sd                        =   0.0000000000000000E+00
(PID.TID 0000.0001) %MON DYC_max                      =   1.1117747335203880E+05
(PID.TID 0000.0001) %MON DYC_min                      =   1.1117747335203880E+05
(PID.TID 0000.0001) %MON DYC_mean                     =   1.1117747335203880E+05
(PID.TID 0000.0001) %MON DYC_sd                       =   0.0000000000000000E+00
(PID.TID 0000.0001) %MON DYF_max                      =   1.1117747335203880E+05
(PID.TID 0000.0001) %MON DYF_min                      =   1.1117747335203880E+05
(PID.TID 0000.0001) %MON DYF_mean                     =   1.1117747335203880E+05
(PID.TID 0000.0001) %MON DYF_sd                       =   0.0000000000000000E+00
(PID.TID 0000.0001) %MON DYG_max                      =   1.1117747335203880E+05
(PID.TID 0000.0001) %MON DYG_min                      =   1.1117747335203880E+05
(PID.TID 0000.0001) %MON DYG_mean                     =   1.1117747335203880E+05
(PID.TID 0000.0001) %MON DYG_sd                       =   0.0000000000000000E+00
(PID.TID 0000.0001) %MON DYU_max                      =   1.1117747335203880E+05
(PID.TID 0000.0001) %MON DYU_min                      =   1.1117747335203880E+05
(PID.TID 0000.0001) %MON DYU_mean                     =   1.1117747335203880E+05
(PID.TID 0000.0001) %MON DYU_sd                       =   0.0000000000000000E+00
(PID.TID 0000.0001) %MON RA_max                       =   1.1788202541769560E+10
(PID.TID 0000.0001) %MON RA_min                       =   1.1788202541769560E+10
(PID.TID 0000.0001) %MON RA_mean                      =   1.1788202541769560E+10
(PID.TID 0000.0001) %MON RA_sd                        =   0.0000000000000000E+00
(PID.TID 0000.0001) %MON RAW_max                      =   1.1788202541769560E+10
(PID.TID 0000.0001) %MON RAW_min                      =   1.1788202541769560E+10
(PID.TID 0000.0001) %MON RAW_mean                     =   1.1788202541769560E+10
(PID.TID 0000.0001) %MON RAW_sd                       =   0.0000000000000000E+00
(PID.TID 0000.0001) %MON RAS_max                      =   1.1755318843773766E+10
(PID.TID 0000.0001) %MON RAS_min                      =   1.1755318843773766E+10
(PID.TID 0000.0001) %MON RAS_mean                     =   1.1755318843773766E+10
(PID.TID 0000.0001) %MON RAS_sd                       =   0.0000000000000000E+00
(PID.TID 0000.0001) %MON RAZ_max                      =   1.1755318843773766E+10
(PID.TID 0000.0001) %MON RAZ_min                      =   1.1755318843773766E+10
(PID.TID 0000.0001) %MON RAZ_mean                     =   1.1755318843773766E+10
(PID.TID 0000.0001) %MON RAZ_sd                       =   0.0000000000000000E+00
(PID.TID 0000.0001) %MON AngleCS_max                  =   1.0000000000000000E+00
(PID.TID 0000.0001) %MON AngleCS_min                  =   1.0000000000000000E+00
(PID.TID 0000.0001) %MON AngleCS_mean                 =   1.0000000000000000E+00
(PID.TID 0000.0001) %MON AngleCS_sd                   =   0.0000000000000000E+00
(PID.TID 0000.0001) %MON AngleSN_max                  =   0.0000000000000000E+00
(PID.TID 0000.0001) %MON AngleSN_min                  =   0.0000000000000000E+00
(PID.TID 0000.0001) %MON AngleSN_mean                 =   0.0000000000000000E+00
(PID.TID 0000.0001) %MON AngleSN_sd                   =   0.0000000000000000E+00
(PID.TID 0000.0001) %MON fCori_max                    =  -4.3855676645210050E-05
(PID.TID 0000.0001) %MON fCori_min                    =  -4.3855676645210050E-05
(PID.TID 0000.0001) %MON fCori_mean                   =  -4.3855676645210050E-05
(PID.TID 0000.0001) %MON fCori_sd                     =   0.0000000000000000E+00
(PID.TID 0000.0001) %MON fCoriG_max                   =  -4.5067801836624727E-05
(PID.TID 0000.0001) %MON fCoriG_min                   =  -4.5067801836624727E-05
(PID.TID 0000.0001) %MON fCoriG_mean                  =  -4.5067801836624727E-05
(PID.TID 0000.0001) %MON fCoriG_sd                    =   0.0000000000000000E+00
(PID.TID 0000.0001) %MON fCoriCos_max                 =   1.3909243610206993E-04
(PID.TID 0000.0001) %MON fCoriCos_min                 =   1.3909243610206993E-04
(PID.TID 0000.0001) %MON fCoriCos_mean                =   1.3909243610206993E-04
(PID.TID 0000.0001) %MON fCoriCos_sd                  =   0.0000000000000000E+00
(PID.TID 0000.0001) %MON time_tsnumber                =                     0
(PID.TID 0000.0001) %MON time_secondsf                =   0.0000000000000000E+00
(PID.TID 0000.0001) %MON dynstat_eta_max              =   0.0000000000000000E+00
(PID.TID 0000.0001) %MON dynstat_eta_min              =   0.0000000000000000E+00
(PID.TID 0000.0001) %MON dynstat_eta_mean             =   0.0000000000000000E+00
(PID.TID 0000.0001) %MON dynstat_eta_sd               =   0.0000000000000000E+00
(PID.TID 0000.0001) %MON dynstat_eta_del2             =   0.0000000000000000E+00
(PID.TID 0000.0001) %MON dynstat_uvel_max             =   0.0000000000000000E+00
(PID.TID 0000.0001) %MON dynstat_uvel_min             =   0.0000000000000000E+00
(PID.TID 0000.0001) %MON dynstat_uvel_mean            =   0.0000000000000000E+00
(PID.TID 0000.0001) %MON dynstat_uvel_sd              =   0.0000000000000000E+00
(PID.TID 0000.0001) %MON dynstat_uvel_del2            =   0.0000000000000000E+00
(PID.TID 0000.0001) %MON dynstat_vvel_max             =   0.0000000000000000E+00
(PID.TID 0000.0001) %MON dynstat_vvel_min             =   0.0000000000000000E+00
(PID.TID 0000.0001) %MON dynstat_vvel_mean            =   0.0000000000000000E+00
(PID.TID 0000.0001) %MON dynstat_vvel_sd              =   0.0000000000000000E+00
(PID.TID 0000.0001) %MON dynstat_vvel_del2            =   0.0000000000000000E+00
(PID.TID 0000.0001) %MON dynstat_wvel_max             =   0.0000000000000000E+00
(PID.TID 0000.0001) %MON dynstat_wvel_min             =   0.0000000000000000E+00
(PID.TID 0000.0001) %MON dynstat_wvel_mean            =   0.0000000000000000E+00
(PID.TID 0000.0001) %MON dynstat_wvel_sd              =   0.0000000000000000E+00
(PID.TID 0000.0001) %MON dynstat_wvel_del2            =   0.0000000000000000E+00
(PID.TID 0000.0001) %MON dynstat_theta_max            =   2.6345800399780273E+01
(PID.TID 0000.0001) %MON dynstat_theta_min            =   2.6737000942230225E+00
(PID.TID 0000.0001) %MON dynstat_theta_mean           =   5.4735936027057521E+00
(PID.TID 0000.0001) %MON dynstat_theta_sd             =   5.1972090828105486E+00
(PID.TID 0000.0001) %MON dynstat_theta_del2           =   0.0000000000000000E+00
(PID.TID 0000.0001) %MON dynstat_salt_max             =   3.5000000000000000E+01
(PID.TID 0000.0001) %MON dynstat_salt_min             =   3.5000000000000000E+01
(PID.TID 0000.0001) %MON dynstat_salt_mean            =   3.5000000000000007E+01
(PID.TID 0000.0001) %MON dynstat_salt_sd              =   7.1054273576010019E-15
(PID.TID 0000.0001) %MON dynstat_salt_del2            =   0.0000000000000000E+00
(PID.TID 0000.0001) %MON dynstat_sst_max              =   2.6345800399780273E+01
(PID.TID 0000.0001) %MON dynstat_sst_min              =   2.6345800399780273E+01
(PID.TID 0000.0001) %MON dynstat_sst_mean             =   2.6345800399780273E+01
(PID.TID 0000.0001) %MON dynstat_sst_sd               =   0.0000000000000000E+00
(PID.TID 0000.0001) %MON dynstat_sst_del2             =   0.0000000000000000E+00
(PID.TID 0000.0001) %MON dynstat_sss_max              =   3.5000000000000000E+01
(PID.TID 0000.0001) %MON dynstat_sss_min              =   3.5000000000000000E+01
(PID.TID 0000.0001) %MON dynstat_sss_mean             =   3.5000000000000000E+01
(PID.TID 0000.0001) %MON dynstat_sss_sd               =   0.0000000000000000E+00
(PID.TID 0000.0001) %MON dynstat_sss_del2             =   0.0000000000000000E+00
(PID.TID 0000.0001) %MON forcing_qnet_max             =   0.0000000000000000E+00
(PID.TID 0000.0001) %MON forcing_qnet_min             =   0.0000000000000000E+00
(PID.TID 0000.0001) %MON forcing_qnet_mean            =   0.0000000000000000E+00
(PID.TID 0000.0001) %MON forcing_qnet_sd              =   0.0000000000000000E+00
(PID.TID 0000.0001) %MON forcing_qnet_del2            =   0.0000000000000000E+00
(PID.TID 0000.0001) %MON forcing_qsw_max              =   0.0000000000000000E+00
(PID.TID 0000.0001) %MON forcing_qsw_min              =   0.0000000000000000E+00
(PID.TID 0000.0001) %MON forcing_qsw_mean             =   0.0000000000000000E+00
(PID.TID 0000.0001) %MON forcing_qsw_sd               =   0.0000000000000000E+00
(PID.TID 0000.0001) %MON forcing_qsw_del2             =   0.0000000000000000E+00
(PID.TID 0000.0001) %MON forcing_empmr_max            =   0.0000000000000000E+00
(PID.TID 0000.0001) %MON forcing_empmr_min            =   0.0000000000000000E+00
(PID.TID 0000.0001) %MON forcing_empmr_mean           =   0.0000000000000000E+00
(PID.TID 0000.0001) %MON forcing_empmr_sd             =   0.0000000000000000E+00
(PID.TID 0000.0001) %MON forcing_empmr_del2           =   0.0000000000000000E+00
(PID.TID 0000.0001) %MON forcing_fu_max               =   0.0000000000000000E+00
(PID.TID 0000.0001) %MON forcing_fu_min               =   0.0000000000000000E+00
(PID.TID 0000.0001) %MON forcing_fu_mean              =   0.0000000000000000E+00
(PID.TID 0000.0001) %MON forcing_fu_sd                =   0.0000000000000000E+00
(PID.TID 0000.0001) %MON forcing_fu_del2              =   0.0000000000000000E+00
(PID.TID 0000.0001) %MON forcing_fv_max               =   0.0000000000000000E+00
(PID.TID 0000.0001) %MON forcing_fv_min               =   0.0000000000000000E+00
(PID.TID 0000.0001) %MON forcing_fv_mean              =   0.0000000000000000E+00
(PID.TID 0000.0001) %MON forcing_fv_sd                =   0.0000000000000000E+00
(PID.TID 0000.0001) %MON forcing_fv_del2              =   0.0000000000000000E+00
(PID.TID 0000.0001) %MON advcfl_uvel_max              =   0.0000000000000000E+00
(PID.TID 0000.0001) %MON advcfl_vvel_max              =   0.0000000000000000E+00
(PID.TID 0000.0001) %MON advcfl_wvel_max              =   0.0000000000000000E+00
(PID.TID 0000.0001) %MON advcfl_W_hf_max              =   0.0000000000000000E+00
(PID.TID 0000.0001) %MON pe_b_mean                    =   0.0000000000000000E+00
(PID.TID 0000.0001) %MON ke_max                       =   0.0000000000000000E+00
(PID.TID 0000.0001) %MON ke_mean                      =   0.0000000000000000E+00
(PID.TID 0000.0001) %MON ke_vol                       =   4.1199767883484609E+13
(PID.TID 0000.0001) %MON vort_r_min                   =   0.0000000000000000E+00
(PID.TID 0000.0001) %MON vort_r_max                   =   0.0000000000000000E+00
(PID.TID 0000.0001) %MON vort_a_mean                  =  -4.5067801836624727E-05
(PID.TID 0000.0001) %MON vort_a_sd                    =  -4.1359030627651384E-25
(PID.TID 0000.0001) %MON vort_p_mean                  =  -4.5067801836624727E-05
(PID.TID 0000.0001) %MON vort_p_sd                    =   0.0000000000000000E+00
(PID.TID 0000.0001) %MON surfExpan_theta_mean         =   0.0000000000000000E+00
(PID.TID 0000.0001) %MON surfExpan_salt_mean          =   0.0000000000000000E+00
(PID.TID 0000.0001) %MON trcstat_ptracer01_max        =                      NAN
(PID.TID 0000.0001) %MON trcstat_ptracer01_min        =                      NAN
(PID.TID 0000.0001) %MON trcstat_ptracer01_mean       =                      NAN
(PID.TID 0000.0001) %MON trcstat_ptracer01_sd         =                      NAN
(PID.TID 0000.0001) %MON trcstat_ptracer01_del2       =                      NAN
(PID.TID 0000.0001) %MON trcstat_ptracer02_max        =   2.5584036484360695E-02
(PID.TID 0000.0001) %MON trcstat_ptracer02_min        =   1.8763074649541522E-07
(PID.TID 0000.0001) %MON trcstat_ptracer02_mean       =   6.0352662496818848E-04
(PID.TID 0000.0001) %MON trcstat_ptracer02_sd         =   3.2425361014467536E-03
(PID.TID 0000.0001) %MON trcstat_ptracer02_del2       =   0.0000000000000000E+00
(PID.TID 0000.0001) %MON trcstat_ptracer03_max        =   1.8258459866046906E-02
(PID.TID 0000.0001) %MON trcstat_ptracer03_min        =   3.8796779335825704E-06
(PID.TID 0000.0001) %MON trcstat_ptracer03_mean       =   6.0474443227462045E-04
(PID.TID 0000.0001) %MON trcstat_ptracer03_sd         =   1.9428680890593122E-03
(PID.TID 0000.0001) %MON trcstat_ptracer03_del2       =   0.0000000000000000E+00
(PID.TID 0000.0001) %MON trcstat_ptracer04_max        =   3.3903499603271484E+01
(PID.TID 0000.0001) %MON trcstat_ptracer04_min        =   4.6300001442432404E-02
(PID.TID 0000.0001) %MON trcstat_ptracer04_mean       =   2.3502389802217742E+01
(PID.TID 0000.0001) %MON trcstat_ptracer04_sd         =   7.8162030599380596E+00
(PID.TID 0000.0001) %MON trcstat_ptracer04_del2       =   0.0000000000000000E+00
(PID.TID 0000.0001) %MON trcstat_ptracer05_max        =   2.2437000274658203E+00
(PID.TID 0000.0001) %MON trcstat_ptracer05_min        =   2.1024999022483826E-01
(PID.TID 0000.0001) %MON trcstat_ptracer05_mean       =   1.5821337454308768E+00
(PID.TID 0000.0001) %MON trcstat_ptracer05_sd         =   4.6735065681379767E-01
(PID.TID 0000.0001) %MON trcstat_ptracer05_del2       =   0.0000000000000000E+00
(PID.TID 0000.0001) %MON trcstat_ptracer06_max        =   3.9387401580810547E+01
(PID.TID 0000.0001) %MON trcstat_ptracer06_min        =   1.2247999906539917E+00
(PID.TID 0000.0001) %MON trcstat_ptracer06_mean       =   2.9621888811155113E+01
(PID.TID 0000.0001) %MON trcstat_ptracer06_sd         =   1.1270588565468758E+01
(PID.TID 0000.0001) %MON trcstat_ptracer06_del2       =   0.0000000000000000E+00
(PID.TID 0000.0001) %MON trcstat_ptracer07_max        =   1.3000000035390258E-03
(PID.TID 0000.0001) %MON trcstat_ptracer07_min        =   1.3000000035390258E-03
(PID.TID 0000.0001) %MON trcstat_ptracer07_mean       =   1.3000000035390258E-03
(PID.TID 0000.0001) %MON trcstat_ptracer07_sd         =   0.0000000000000000E+00
(PID.TID 0000.0001) %MON trcstat_ptracer07_del2       =   0.0000000000000000E+00
(PID.TID 0000.0001) %MON trcstat_ptracer08_max        =   6.1361303552985191E-01
(PID.TID 0000.0001) %MON trcstat_ptracer08_min        =   0.0000000000000000E+00
(PID.TID 0000.0001) %MON trcstat_ptracer08_mean       =   2.5768235051024848E-02
(PID.TID 0000.0001) %MON trcstat_ptracer08_sd         =   1.1093058611766035E-01
(PID.TID 0000.0001) %MON trcstat_ptracer08_del2       =   0.0000000000000000E+00
(PID.TID 0000.0001) %MON trcstat_ptracer09_max        =   8.1815071403980255E-02
(PID.TID 0000.0001) %MON trcstat_ptracer09_min        =   0.0000000000000000E+00
(PID.TID 0000.0001) %MON trcstat_ptracer09_mean       =   3.4357646734699799E-03
(PID.TID 0000.0001) %MON trcstat_ptracer09_sd         =   1.4790744815688046E-02
(PID.TID 0000.0001) %MON trcstat_ptracer09_del2       =   0.0000000000000000E+00
(PID.TID 0000.0001) %MON trcstat_ptracer10_max        =   5.1134419627487659E-03
(PID.TID 0000.0001) %MON trcstat_ptracer10_min        =   0.0000000000000000E+00
(PID.TID 0000.0001) %MON trcstat_ptracer10_mean       =   2.1473529209187374E-04
(PID.TID 0000.0001) %MON trcstat_ptracer10_sd         =   9.2442155098050290E-04
(PID.TID 0000.0001) %MON trcstat_ptracer10_del2       =   0.0000000000000000E+00
(PID.TID 0000.0001) %MON trcstat_ptracer11_max        =   5.1134416025888640E-06
(PID.TID 0000.0001) %MON trcstat_ptracer11_min        =   0.0000000000000000E+00
(PID.TID 0000.0001) %MON trcstat_ptracer11_mean       =   2.1473529239837693E-07
(PID.TID 0000.0001) %MON trcstat_ptracer11_sd         =   9.2442155063872205E-07
(PID.TID 0000.0001) %MON trcstat_ptracer11_del2       =   0.0000000000000000E+00
(PID.TID 0000.0001) %MON trcstat_ptracer12_max        =   3.2696326961740851E-02
(PID.TID 0000.0001) %MON trcstat_ptracer12_min        =   1.4074325918045361E-04
(PID.TID 0000.0001) %MON trcstat_ptracer12_mean       =   9.4718200756289880E-03
(PID.TID 0000.0001) %MON trcstat_ptracer12_sd         =   1.1596152472639534E-02
(PID.TID 0000.0001) %MON trcstat_ptracer12_del2       =   0.0000000000000000E+00
(PID.TID 0000.0001) %MON trcstat_ptracer13_max        =   4.3595102615654469E-03
(PID.TID 0000.0001) %MON trcstat_ptracer13_min        =   1.8765767890727147E-05
(PID.TID 0000.0001) %MON trcstat_ptracer13_mean       =   1.2629093434171983E-03
(PID.TID 0000.0001) %MON trcstat_ptracer13_sd         =   1.5461536630186044E-03
(PID.TID 0000.0001) %MON trcstat_ptracer13_del2       =   0.0000000000000000E+00
(PID.TID 0000.0001) %MON trcstat_ptracer14_max        =   2.7246939134784043E-04
(PID.TID 0000.0001) %MON trcstat_ptracer14_min        =   1.1728604931704467E-06
(PID.TID 0000.0001) %MON trcstat_ptracer14_mean       =   7.8931833963574895E-05
(PID.TID 0000.0001) %MON trcstat_ptracer14_sd         =   9.6634603938662776E-05
(PID.TID 0000.0001) %MON trcstat_ptracer14_del2       =   0.0000000000000000E+00
(PID.TID 0000.0001) %MON trcstat_ptracer15_max        =   1.6253039240837097E-02
(PID.TID 0000.0001) %MON trcstat_ptracer15_min        =   1.1382005177438259E-03
(PID.TID 0000.0001) %MON trcstat_ptracer15_mean       =   5.4894673427532239E-03
(PID.TID 0000.0001) %MON trcstat_ptracer15_sd         =   5.1731692661236344E-03
(PID.TID 0000.0001) %MON trcstat_ptracer15_del2       =   0.0000000000000000E+00
(PID.TID 0000.0001) %MON trcstat_ptracer16_max        =   2.7246940703662403E-07
(PID.TID 0000.0001) %MON trcstat_ptracer16_min        =   1.1728603643845759E-09
(PID.TID 0000.0001) %MON trcstat_ptracer16_mean       =   7.8931834490194816E-08
(PID.TID 0000.0001) %MON trcstat_ptracer16_sd         =   9.6634605997272585E-08
(PID.TID 0000.0001) %MON trcstat_ptracer16_del2       =   0.0000000000000000E+00
(PID.TID 0000.0001) %MON trcstat_ptracer17_max        =                      NAN
(PID.TID 0000.0001) %MON trcstat_ptracer17_min        =                      NAN
(PID.TID 0000.0001) %MON trcstat_ptracer17_mean       =                      NAN
(PID.TID 0000.0001) %MON trcstat_ptracer17_sd         =                      NAN
(PID.TID 0000.0001) %MON trcstat_ptracer17_del2       =                      NAN
(PID.TID 0000.0001) %MON trcstat_ptracer18_max        =   8.8153867181972601E-04
(PID.TID 0000.0001) %MON trcstat_ptracer18_min        =   0.0000000000000000E+00
(PID.TID 0000.0001) %MON trcstat_ptracer18_mean       =   2.6284899836225207E-05
(PID.TID 0000.0001) %MON trcstat_ptracer18_sd         =   1.3780694875415345E-04
(PID.TID 0000.0001) %MON trcstat_ptracer18_del2       =   0.0000000000000000E+00
(PID.TID 0000.0001) %MON trcstat_ptracer19_max        =   8.8153867181972601E-04
(PID.TID 0000.0001) %MON trcstat_ptracer19_min        =   0.0000000000000000E+00
(PID.TID 0000.0001) %MON trcstat_ptracer19_mean       =   2.6284899836225207E-05
(PID.TID 0000.0001) %MON trcstat_ptracer19_sd         =   1.3780694875415345E-04
(PID.TID 0000.0001) %MON trcstat_ptracer19_del2       =   0.0000000000000000E+00
(PID.TID 0000.0001) %MON trcstat_ptracer20_max        =   8.8153867181972601E-04
(PID.TID 0000.0001) %MON trcstat_ptracer20_min        =   0.0000000000000000E+00
(PID.TID 0000.0001) %MON trcstat_ptracer20_mean       =   2.6284899836225207E-05
(PID.TID 0000.0001) %MON trcstat_ptracer20_sd         =   1.3780694875415345E-04
(PID.TID 0000.0001) %MON trcstat_ptracer20_del2       =   0.0000000000000000E+00
(PID.TID 0000.0001) %MON trcstat_ptracer21_max        =   8.8153867181972601E-04
(PID.TID 0000.0001) %MON trcstat_ptracer21_min        =   0.0000000000000000E+00
(PID.TID 0000.0001) %MON trcstat_ptracer21_mean       =   2.6284899836225207E-05
(PID.TID 0000.0001) %MON trcstat_ptracer21_sd         =   1.3780694875415345E-04
(PID.TID 0000.0001) %MON trcstat_ptracer21_del2       =   0.0000000000000000E+00
(PID.TID 0000.0001) %MON trcstat_ptracer22_max        =   8.8153867181972601E-04
(PID.TID 0000.0001) %MON trcstat_ptracer22_min        =   0.0000000000000000E+00
(PID.TID 0000.0001) %MON trcstat_ptracer22_mean       =   2.6284899836225207E-05
(PID.TID 0000.0001) %MON trcstat_ptracer22_sd         =   1.3780694875415345E-04
(PID.TID 0000.0001) %MON trcstat_ptracer22_del2       =   0.0000000000000000E+00
(PID.TID 0000.0001) %MON trcstat_ptracer23_max        =   8.8153867181972601E-04
(PID.TID 0000.0001) %MON trcstat_ptracer23_min        =   0.0000000000000000E+00
(PID.TID 0000.0001) %MON trcstat_ptracer23_mean       =   2.6284899836225207E-05
(PID.TID 0000.0001) %MON trcstat_ptracer23_sd         =   1.3780694875415345E-04
(PID.TID 0000.0001) %MON trcstat_ptracer23_del2       =   0.0000000000000000E+00
(PID.TID 0000.0001) %MON trcstat_ptracer24_max        =   8.8153867181972601E-04
(PID.TID 0000.0001) %MON trcstat_ptracer24_min        =   0.0000000000000000E+00
(PID.TID 0000.0001) %MON trcstat_ptracer24_mean       =   2.6284899836225207E-05
(PID.TID 0000.0001) %MON trcstat_ptracer24_sd         =   1.3780694875415345E-04
(PID.TID 0000.0001) %MON trcstat_ptracer24_del2       =   0.0000000000000000E+00
(PID.TID 0000.0001) %MON trcstat_ptracer25_max        =   8.8153867181972601E-04
(PID.TID 0000.0001) %MON trcstat_ptracer25_min        =   0.0000000000000000E+00
(PID.TID 0000.0001) %MON trcstat_ptracer25_mean       =   2.6284899836225207E-05
(PID.TID 0000.0001) %MON trcstat_ptracer25_sd         =   1.3780694875415345E-04
(PID.TID 0000.0001) %MON trcstat_ptracer25_del2       =   0.0000000000000000E+00
(PID.TID 0000.0001) %MON trcstat_ptracer26_max        =   8.8153867181972601E-04
(PID.TID 0000.0001) %MON trcstat_ptracer26_min        =   0.0000000000000000E+00
(PID.TID 0000.0001) %MON trcstat_ptracer26_mean       =   2.6284899836225207E-05
(PID.TID 0000.0001) %MON trcstat_ptracer26_sd         =   1.3780694875415345E-04
(PID.TID 0000.0001) %MON trcstat_ptracer26_del2       =   0.0000000000000000E+00
(PID.TID 0000.0001) %MON trcstat_ptracer27_max        =   8.8153867181972601E-04
(PID.TID 0000.0001) %MON trcstat_ptracer27_min        =   0.0000000000000000E+00
(PID.TID 0000.0001) %MON trcstat_ptracer27_mean       =   2.6284899836225207E-05
(PID.TID 0000.0001) %MON trcstat_ptracer27_sd         =   1.3780694875415345E-04
(PID.TID 0000.0001) %MON trcstat_ptracer27_del2       =   0.0000000000000000E+00
(PID.TID 0000.0001) %MON trcstat_ptracer28_max        =   8.8153867181972601E-04
(PID.TID 0000.0001) %MON trcstat_ptracer28_min        =   0.0000000000000000E+00
(PID.TID 0000.0001) %MON trcstat_ptracer28_mean       =   2.6284899836225207E-05
(PID.TID 0000.0001) %MON trcstat_ptracer28_sd         =   1.3780694875415345E-04
(PID.TID 0000.0001) %MON trcstat_ptracer28_del2       =   0.0000000000000000E+00
(PID.TID 0000.0001) %MON trcstat_ptracer29_max        =   8.8153867181972601E-04
(PID.TID 0000.0001) %MON trcstat_ptracer29_min        =   0.0000000000000000E+00
(PID.TID 0000.0001) %MON trcstat_ptracer29_mean       =   2.6284899836225207E-05
(PID.TID 0000.0001) %MON trcstat_ptracer29_sd         =   1.3780694875415345E-04
(PID.TID 0000.0001) %MON trcstat_ptracer29_del2       =   0.0000000000000000E+00
(PID.TID 0000.0001) %MON trcstat_ptracer30_max        =   8.8153867181972601E-04
(PID.TID 0000.0001) %MON trcstat_ptracer30_min        =   0.0000000000000000E+00
(PID.TID 0000.0001) %MON trcstat_ptracer30_mean       =   2.6284899836225207E-05
(PID.TID 0000.0001) %MON trcstat_ptracer30_sd         =   1.3780694875415345E-04
(PID.TID 0000.0001) %MON trcstat_ptracer30_del2       =   0.0000000000000000E+00
(PID.TID 0000.0001) %MON trcstat_ptracer31_max        =   8.8153867181972601E-04
(PID.TID 0000.0001) %MON trcstat_ptracer31_min        =   0.0000000000000000E+00
(PID.TID 0000.0001) %MON trcstat_ptracer31_mean       =   2.6284899836225207E-05
(PID.TID 0000.0001) %MON trcstat_ptracer31_sd         =   1.3780694875415345E-04
(PID.TID 0000.0001) %MON trcstat_ptracer31_del2       =   0.0000000000000000E+00
(PID.TID 0000.0001) %MON trcstat_ptracer32_max        =   8.8153867181972601E-04
(PID.TID 0000.0001) %MON trcstat_ptracer32_min        =   0.0000000000000000E+00
(PID.TID 0000.0001) %MON trcstat_ptracer32_mean       =   2.6284899836225207E-05
(PID.TID 0000.0001) %MON trcstat_ptracer32_sd         =   1.3780694875415345E-04
(PID.TID 0000.0001) %MON trcstat_ptracer32_del2       =   0.0000000000000000E+00
(PID.TID 0000.0001) %MON trcstat_ptracer33_max        =   8.8153867181972601E-04
(PID.TID 0000.0001) %MON trcstat_ptracer33_min        =   0.0000000000000000E+00
(PID.TID 0000.0001) %MON trcstat_ptracer33_mean       =   2.6284899836225207E-05
(PID.TID 0000.0001) %MON trcstat_ptracer33_sd         =   1.3780694875415345E-04
(PID.TID 0000.0001) %MON trcstat_ptracer33_del2       =   0.0000000000000000E+00
(PID.TID 0000.0001) %MON trcstat_ptracer34_max        =   8.8153867181972601E-04
(PID.TID 0000.0001) %MON trcstat_ptracer34_min        =   0.0000000000000000E+00
(PID.TID 0000.0001) %MON trcstat_ptracer34_mean       =   2.6284899836225207E-05
(PID.TID 0000.0001) %MON trcstat_ptracer34_sd         =   1.3780694875415345E-04
(PID.TID 0000.0001) %MON trcstat_ptracer34_del2       =   0.0000000000000000E+00
(PID.TID 0000.0001) %MON trcstat_ptracer35_max        =   8.8153867181972601E-04
(PID.TID 0000.0001) %MON trcstat_ptracer35_min        =   0.0000000000000000E+00
(PID.TID 0000.0001) %MON trcstat_ptracer35_mean       =   2.6284899836225207E-05
(PID.TID 0000.0001) %MON trcstat_ptracer35_sd         =   1.3780694875415345E-04
(PID.TID 0000.0001) %MON trcstat_ptracer35_del2       =   0.0000000000000000E+00
(PID.TID 0000.0001) %MON trcstat_ptracer36_max        =   8.8153867181972601E-04
(PID.TID 0000.0001) %MON trcstat_ptracer36_min        =   0.0000000000000000E+00
(PID.TID 0000.0001) %MON trcstat_ptracer36_mean       =   2.6284899836225207E-05
(PID.TID 0000.0001) %MON trcstat_ptracer36_sd         =   1.3780694875415345E-04
(PID.TID 0000.0001) %MON trcstat_ptracer36_del2       =   0.0000000000000000E+00
(PID.TID 0000.0001) %MON trcstat_ptracer37_max        =   8.8153867181972601E-04
(PID.TID 0000.0001) %MON trcstat_ptracer37_min        =   0.0000000000000000E+00
(PID.TID 0000.0001) %MON trcstat_ptracer37_mean       =   2.6284899836225207E-05
(PID.TID 0000.0001) %MON trcstat_ptracer37_sd         =   1.3780694875415345E-04
(PID.TID 0000.0001) %MON trcstat_ptracer37_del2       =   0.0000000000000000E+00
(PID.TID 0000.0001) %MON trcstat_ptracer38_max        =   8.8153867181972601E-04
(PID.TID 0000.0001) %MON trcstat_ptracer38_min        =   0.0000000000000000E+00
(PID.TID 0000.0001) %MON trcstat_ptracer38_mean       =   2.6284899836225207E-05
(PID.TID 0000.0001) %MON trcstat_ptracer38_sd         =   1.3780694875415345E-04
(PID.TID 0000.0001) %MON trcstat_ptracer38_del2       =   0.0000000000000000E+00
(PID.TID 0000.0001) %MON trcstat_ptracer39_max        =   8.8153867181972601E-04
(PID.TID 0000.0001) %MON trcstat_ptracer39_min        =   0.0000000000000000E+00
(PID.TID 0000.0001) %MON trcstat_ptracer39_mean       =   2.6284899836225207E-05
(PID.TID 0000.0001) %MON trcstat_ptracer39_sd         =   1.3780694875415345E-04
(PID.TID 0000.0001) %MON trcstat_ptracer39_del2       =   0.0000000000000000E+00
(PID.TID 0000.0001) %MON trcstat_ptracer40_max        =   8.8153867181972601E-04
(PID.TID 0000.0001) %MON trcstat_ptracer40_min        =   0.0000000000000000E+00
(PID.TID 0000.0001) %MON trcstat_ptracer40_mean       =   2.6284899836225207E-05
(PID.TID 0000.0001) %MON trcstat_ptracer40_sd         =   1.3780694875415345E-04
(PID.TID 0000.0001) %MON trcstat_ptracer40_del2       =   0.0000000000000000E+00
(PID.TID 0000.0001) %MON trcstat_ptracer41_max        =   8.8153867181972601E-04
(PID.TID 0000.0001) %MON trcstat_ptracer41_min        =   0.0000000000000000E+00
(PID.TID 0000.0001) %MON trcstat_ptracer41_mean       =   2.6284899836225207E-05
(PID.TID 0000.0001) %MON trcstat_ptracer41_sd         =   1.3780694875415345E-04
(PID.TID 0000.0001) %MON trcstat_ptracer41_del2       =   0.0000000000000000E+00
(PID.TID 0000.0001) %MON trcstat_ptracer42_max        =   8.8153867181972601E-04
(PID.TID 0000.0001) %MON trcstat_ptracer42_min        =   0.0000000000000000E+00
(PID.TID 0000.0001) %MON trcstat_ptracer42_mean       =   2.6284899836225207E-05
(PID.TID 0000.0001) %MON trcstat_ptracer42_sd         =   1.3780694875415345E-04
(PID.TID 0000.0001) %MON trcstat_ptracer42_del2       =   0.0000000000000000E+00
(PID.TID 0000.0001) %MON trcstat_ptracer43_max        =   8.8153867181972601E-04
(PID.TID 0000.0001) %MON trcstat_ptracer43_min        =   0.0000000000000000E+00
(PID.TID 0000.0001) %MON trcstat_ptracer43_mean       =   2.6284899836225207E-05
(PID.TID 0000.0001) %MON trcstat_ptracer43_sd         =   1.3780694875415345E-04
(PID.TID 0000.0001) %MON trcstat_ptracer43_del2       =   0.0000000000000000E+00
(PID.TID 0000.0001) %MON trcstat_ptracer44_max        =   8.8153867181972601E-04
(PID.TID 0000.0001) %MON trcstat_ptracer44_min        =   0.0000000000000000E+00
(PID.TID 0000.0001) %MON trcstat_ptracer44_mean       =   2.6284899836225207E-05
(PID.TID 0000.0001) %MON trcstat_ptracer44_sd         =   1.3780694875415345E-04
(PID.TID 0000.0001) %MON trcstat_ptracer44_del2       =   0.0000000000000000E+00
(PID.TID 0000.0001) %MON trcstat_ptracer45_max        =   8.8153867181972601E-04
(PID.TID 0000.0001) %MON trcstat_ptracer45_min        =   0.0000000000000000E+00
(PID.TID 0000.0001) %MON trcstat_ptracer45_mean       =   2.6284899836225207E-05
(PID.TID 0000.0001) %MON trcstat_ptracer45_sd         =   1.3780694875415345E-04
(PID.TID 0000.0001) %MON trcstat_ptracer45_del2       =   0.0000000000000000E+00
(PID.TID 0000.0001) %MON trcstat_ptracer46_max        =   8.8153867181972601E-04
(PID.TID 0000.0001) %MON trcstat_ptracer46_min        =   0.0000000000000000E+00
(PID.TID 0000.0001) %MON trcstat_ptracer46_mean       =   2.6284899836225207E-05
(PID.TID 0000.0001) %MON trcstat_ptracer46_sd         =   1.3780694875415345E-04
(PID.TID 0000.0001) %MON trcstat_ptracer46_del2       =   0.0000000000000000E+00
(PID.TID 0000.0001) %MON trcstat_ptracer47_max        =   8.8153867181972601E-04
(PID.TID 0000.0001) %MON trcstat_ptracer47_min        =   0.0000000000000000E+00
(PID.TID 0000.0001) %MON trcstat_ptracer47_mean       =   2.6284899836225207E-05
(PID.TID 0000.0001) %MON trcstat_ptracer47_sd         =   1.3780694875415345E-04
(PID.TID 0000.0001) %MON trcstat_ptracer47_del2       =   0.0000000000000000E+00
(PID.TID 0000.0001) %MON trcstat_ptracer48_max        =   8.8153867181972601E-04
(PID.TID 0000.0001) %MON trcstat_ptracer48_min        =   0.0000000000000000E+00
(PID.TID 0000.0001) %MON trcstat_ptracer48_mean       =   2.6284899836225207E-05
(PID.TID 0000.0001) %MON trcstat_ptracer48_sd         =   1.3780694875415345E-04
(PID.TID 0000.0001) %MON trcstat_ptracer48_del2       =   0.0000000000000000E+00
(PID.TID 0000.0001) %MON trcstat_ptracer49_max        =   8.8153867181972601E-04
(PID.TID 0000.0001) %MON trcstat_ptracer49_min        =   0.0000000000000000E+00
(PID.TID 0000.0001) %MON trcstat_ptracer49_mean       =   2.6284899836225207E-05
(PID.TID 0000.0001) %MON trcstat_ptracer49_sd         =   1.3780694875415345E-04
(PID.TID 0000.0001) %MON trcstat_ptracer49_del2       =   0.0000000000000000E+00
(PID.TID 0000.0001) %MON trcstat_ptracer50_max        =   8.8153867181972601E-04
(PID.TID 0000.0001) %MON trcstat_ptracer50_min        =   0.0000000000000000E+00
(PID.TID 0000.0001) %MON trcstat_ptracer50_mean       =   2.6284899836225207E-05
(PID.TID 0000.0001) %MON trcstat_ptracer50_sd         =   1.3780694875415345E-04
(PID.TID 0000.0001) %MON trcstat_ptracer50_del2       =   0.0000000000000000E+00
(PID.TID 0000.0001) %MON trcstat_ptracer51_max        =   8.8153867181972601E-04
(PID.TID 0000.0001) %MON trcstat_ptracer51_min        =   0.0000000000000000E+00
(PID.TID 0000.0001) %MON trcstat_ptracer51_mean       =   2.6284899836225207E-05
(PID.TID 0000.0001) %MON trcstat_ptracer51_sd         =   1.3780694875415345E-04
(PID.TID 0000.0001) %MON trcstat_ptracer51_del2       =   0.0000000000000000E+00
(PID.TID 0000.0001) %MON trcstat_ptracer52_max        =   8.8153867181972601E-04
(PID.TID 0000.0001) %MON trcstat_ptracer52_min        =   0.0000000000000000E+00
(PID.TID 0000.0001) %MON trcstat_ptracer52_mean       =   2.6284899836225207E-05
(PID.TID 0000.0001) %MON trcstat_ptracer52_sd         =   1.3780694875415345E-04
(PID.TID 0000.0001) %MON trcstat_ptracer52_del2       =   0.0000000000000000E+00
(PID.TID 0000.0001) %MON trcstat_ptracer53_max        =   8.8153867181972601E-04
(PID.TID 0000.0001) %MON trcstat_ptracer53_min        =   0.0000000000000000E+00
(PID.TID 0000.0001) %MON trcstat_ptracer53_mean       =   2.6284899836225207E-05
(PID.TID 0000.0001) %MON trcstat_ptracer53_sd         =   1.3780694875415345E-04
(PID.TID 0000.0001) %MON trcstat_ptracer53_del2       =   0.0000000000000000E+00
(PID.TID 0000.0001) %MON trcstat_ptracer54_max        =   8.8153867181972601E-04
(PID.TID 0000.0001) %MON trcstat_ptracer54_min        =   0.0000000000000000E+00
(PID.TID 0000.0001) %MON trcstat_ptracer54_mean       =   2.6284899836225207E-05
(PID.TID 0000.0001) %MON trcstat_ptracer54_sd         =   1.3780694875415345E-04
(PID.TID 0000.0001) %MON trcstat_ptracer54_del2       =   0.0000000000000000E+00
(PID.TID 0000.0001) %MON trcstat_ptracer55_max        =   8.8153867181972601E-04
(PID.TID 0000.0001) %MON trcstat_ptracer55_min        =   0.0000000000000000E+00
(PID.TID 0000.0001) %MON trcstat_ptracer55_mean       =   2.6284899836225207E-05
(PID.TID 0000.0001) %MON trcstat_ptracer55_sd         =   1.3780694875415345E-04
(PID.TID 0000.0001) %MON trcstat_ptracer55_del2       =   0.0000000000000000E+00
(PID.TID 0000.0001) %MON trcstat_ptracer56_max        =   8.8153867181972601E-04
(PID.TID 0000.0001) %MON trcstat_ptracer56_min        =   0.0000000000000000E+00
(PID.TID 0000.0001) %MON trcstat_ptracer56_mean       =   2.6284899836225207E-05
(PID.TID 0000.0001) %MON trcstat_ptracer56_sd         =   1.3780694875415345E-04
(PID.TID 0000.0001) %MON trcstat_ptracer56_del2       =   0.0000000000000000E+00
(PID.TID 0000.0001) %MON trcstat_ptracer57_max        =   8.8153867181972601E-04
(PID.TID 0000.0001) %MON trcstat_ptracer57_min        =   0.0000000000000000E+00
(PID.TID 0000.0001) %MON trcstat_ptracer57_mean       =   2.6284899836225207E-05
(PID.TID 0000.0001) %MON trcstat_ptracer57_sd         =   1.3780694875415345E-04
(PID.TID 0000.0001) %MON trcstat_ptracer57_del2       =   0.0000000000000000E+00
(PID.TID 0000.0001) %MON trcstat_ptracer58_max        =   8.8153867181972601E-04
(PID.TID 0000.0001) %MON trcstat_ptracer58_min        =   0.0000000000000000E+00
(PID.TID 0000.0001) %MON trcstat_ptracer58_mean       =   2.6284899836225207E-05
(PID.TID 0000.0001) %MON trcstat_ptracer58_sd         =   1.3780694875415345E-04
(PID.TID 0000.0001) %MON trcstat_ptracer58_del2       =   0.0000000000000000E+00
(PID.TID 0000.0001) %MON trcstat_ptracer59_max        =   8.8153867181972601E-04
(PID.TID 0000.0001) %MON trcstat_ptracer59_min        =   0.0000000000000000E+00
(PID.TID 0000.0001) %MON trcstat_ptracer59_mean       =   2.6284899836225207E-05
(PID.TID 0000.0001) %MON trcstat_ptracer59_sd         =   1.3780694875415345E-04
(PID.TID 0000.0001) %MON trcstat_ptracer59_del2       =   0.0000000000000000E+00
(PID.TID 0000.0001) %MON trcstat_ptracer60_max        =   8.8153867181972601E-04
(PID.TID 0000.0001) %MON trcstat_ptracer60_min        =   0.0000000000000000E+00
(PID.TID 0000.0001) %MON trcstat_ptracer60_mean       =   2.6284899836225207E-05
(PID.TID 0000.0001) %MON trcstat_ptracer60_sd         =   1.3780694875415345E-04
(PID.TID 0000.0001) %MON trcstat_ptracer60_del2       =   0.0000000000000000E+00
(PID.TID 0000.0001) %MON trcstat_ptracer61_max        =   8.8153867181972601E-04
(PID.TID 0000.0001) %MON trcstat_ptracer61_min        =   0.0000000000000000E+00
(PID.TID 0000.0001) %MON trcstat_ptracer61_mean       =   2.6284899836225207E-05
(PID.TID 0000.0001) %MON trcstat_ptracer61_sd         =   1.3780694875415345E-04
(PID.TID 0000.0001) %MON trcstat_ptracer61_del2       =   0.0000000000000000E+00
(PID.TID 0000.0001) %MON trcstat_ptracer62_max        =   8.8153867181972601E-04
(PID.TID 0000.0001) %MON trcstat_ptracer62_min        =   0.0000000000000000E+00
(PID.TID 0000.0001) %MON trcstat_ptracer62_mean       =   2.6284899836225207E-05
(PID.TID 0000.0001) %MON trcstat_ptracer62_sd         =   1.3780694875415345E-04
(PID.TID 0000.0001) %MON trcstat_ptracer62_del2       =   0.0000000000000000E+00
(PID.TID 0000.0001) %MON trcstat_ptracer63_max        =   8.8153867181972601E-04
(PID.TID 0000.0001) %MON trcstat_ptracer63_min        =   0.0000000000000000E+00
(PID.TID 0000.0001) %MON trcstat_ptracer63_mean       =   2.6284899836225207E-05
(PID.TID 0000.0001) %MON trcstat_ptracer63_sd         =   1.3780694875415345E-04
(PID.TID 0000.0001) %MON trcstat_ptracer63_del2       =   0.0000000000000000E+00
(PID.TID 0000.0001) %MON trcstat_ptracer64_max        =   8.8153867181972601E-04
(PID.TID 0000.0001) %MON trcstat_ptracer64_min        =   0.0000000000000000E+00
(PID.TID 0000.0001) %MON trcstat_ptracer64_mean       =   2.6284899836225207E-05
(PID.TID 0000.0001) %MON trcstat_ptracer64_sd         =   1.3780694875415345E-04
(PID.TID 0000.0001) %MON trcstat_ptracer64_del2       =   0.0000000000000000E+00
(PID.TID 0000.0001) %MON trcstat_ptracer65_max        =   8.8153867181972601E-04
(PID.TID 0000.0001) %MON trcstat_ptracer65_min        =   0.0000000000000000E+00
(PID.TID 0000.0001) %MON trcstat_ptracer65_mean       =   2.6284899836225207E-05
(PID.TID 0000.0001) %MON trcstat_ptracer65_sd         =   1.3780694875415345E-04
(PID.TID 0000.0001) %MON trcstat_ptracer65_del2       =   0.0000000000000000E+00
(PID.TID 0000.0001) %MON trcstat_ptracer66_max        =   8.8153867181972601E-04
(PID.TID 0000.0001) %MON trcstat_ptracer66_min        =   0.0000000000000000E+00
(PID.TID 0000.0001) %MON trcstat_ptracer66_mean       =   2.6284899836225207E-05
(PID.TID 0000.0001) %MON trcstat_ptracer66_sd         =   1.3780694875415345E-04
(PID.TID 0000.0001) %MON trcstat_ptracer66_del2       =   0.0000000000000000E+00
(PID.TID 0000.0001) %MON trcstat_ptracer67_max        =   8.8153867181972601E-04
(PID.TID 0000.0001) %MON trcstat_ptracer67_min        =   0.0000000000000000E+00
(PID.TID 0000.0001) %MON trcstat_ptracer67_mean       =   2.6284899836225207E-05
(PID.TID 0000.0001) %MON trcstat_ptracer67_sd         =   1.3780694875415345E-04
(PID.TID 0000.0001) %MON trcstat_ptracer67_del2       =   0.0000000000000000E+00
(PID.TID 0000.0001) %MON trcstat_ptracer68_max        =   8.8153867181972601E-04
(PID.TID 0000.0001) %MON trcstat_ptracer68_min        =   0.0000000000000000E+00
(PID.TID 0000.0001) %MON trcstat_ptracer68_mean       =   2.6284899836225207E-05
(PID.TID 0000.0001) %MON trcstat_ptracer68_sd         =   1.3780694875415345E-04
(PID.TID 0000.0001) %MON trcstat_ptracer68_del2       =   0.0000000000000000E+00
(PID.TID 0000.0001) %MON trcstat_ptracer69_max        =   8.8153867181972601E-04
(PID.TID 0000.0001) %MON trcstat_ptracer69_min        =   0.0000000000000000E+00
(PID.TID 0000.0001) %MON trcstat_ptracer69_mean       =   2.6284899836225207E-05
(PID.TID 0000.0001) %MON trcstat_ptracer69_sd         =   1.3780694875415345E-04
(PID.TID 0000.0001) %MON trcstat_ptracer69_del2       =   0.0000000000000000E+00
(PID.TID 0000.0001) %MON trcstat_ptracer70_max        =   8.8153867181972601E-04
(PID.TID 0000.0001) %MON trcstat_ptracer70_min        =   0.0000000000000000E+00
(PID.TID 0000.0001) %MON trcstat_ptracer70_mean       =   2.6284899836225207E-05
(PID.TID 0000.0001) %MON trcstat_ptracer70_sd         =   1.3780694875415345E-04
(PID.TID 0000.0001) %MON trcstat_ptracer70_del2       =   0.0000000000000000E+00
(PID.TID 0000.0001) %MON trcstat_ptracer71_max        =   8.8153867181972601E-04
(PID.TID 0000.0001) %MON trcstat_ptracer71_min        =   0.0000000000000000E+00
(PID.TID 0000.0001) %MON trcstat_ptracer71_mean       =   2.6284899836225207E-05
(PID.TID 0000.0001) %MON trcstat_ptracer71_sd         =   1.3780694875415345E-04
(PID.TID 0000.0001) %MON trcstat_ptracer71_del2       =   0.0000000000000000E+00
(PID.TID 0000.0001) %MON trcstat_ptracer72_max        =   8.8153867181972601E-04
(PID.TID 0000.0001) %MON trcstat_ptracer72_min        =   0.0000000000000000E+00
(PID.TID 0000.0001) %MON trcstat_ptracer72_mean       =   2.6284899836225207E-05
(PID.TID 0000.0001) %MON trcstat_ptracer72_sd         =   1.3780694875415345E-04
(PID.TID 0000.0001) %MON trcstat_ptracer72_del2       =   0.0000000000000000E+00
(PID.TID 0000.0001) %MON trcstat_ptracer73_max        =   8.8153867181972601E-04
(PID.TID 0000.0001) %MON trcstat_ptracer73_min        =   0.0000000000000000E+00
(PID.TID 0000.0001) %MON trcstat_ptracer73_mean       =   2.6284899836225207E-05
(PID.TID 0000.0001) %MON trcstat_ptracer73_sd         =   1.3780694875415345E-04
(PID.TID 0000.0001) %MON trcstat_ptracer73_del2       =   0.0000000000000000E+00
(PID.TID 0000.0001) %MON trcstat_ptracer74_max        =   8.8153867181972601E-04
(PID.TID 0000.0001) %MON trcstat_ptracer74_min        =   0.0000000000000000E+00
(PID.TID 0000.0001) %MON trcstat_ptracer74_mean       =   2.6284899836225207E-05
(PID.TID 0000.0001) %MON trcstat_ptracer74_sd         =   1.3780694875415345E-04
(PID.TID 0000.0001) %MON trcstat_ptracer74_del2       =   0.0000000000000000E+00
(PID.TID 0000.0001) %MON trcstat_ptracer75_max        =   8.8153867181972601E-04
(PID.TID 0000.0001) %MON trcstat_ptracer75_min        =   0.0000000000000000E+00
(PID.TID 0000.0001) %MON trcstat_ptracer75_mean       =   2.6284899836225207E-05
(PID.TID 0000.0001) %MON trcstat_ptracer75_sd         =   1.3780694875415345E-04
(PID.TID 0000.0001) %MON trcstat_ptracer75_del2       =   0.0000000000000000E+00
(PID.TID 0000.0001) %MON trcstat_ptracer76_max        =   8.8153867181972601E-04
(PID.TID 0000.0001) %MON trcstat_ptracer76_min        =   0.0000000000000000E+00
(PID.TID 0000.0001) %MON trcstat_ptracer76_mean       =   2.6284899836225207E-05
(PID.TID 0000.0001) %MON trcstat_ptracer76_sd         =   1.3780694875415345E-04
(PID.TID 0000.0001) %MON trcstat_ptracer76_del2       =   0.0000000000000000E+00
(PID.TID 0000.0001) %MON trcstat_ptracer77_max        =   8.8153867181972601E-04
(PID.TID 0000.0001) %MON trcstat_ptracer77_min        =   0.0000000000000000E+00
(PID.TID 0000.0001) %MON trcstat_ptracer77_mean       =   2.6284899836225207E-05
(PID.TID 0000.0001) %MON trcstat_ptracer77_sd         =   1.3780694875415345E-04
(PID.TID 0000.0001) %MON trcstat_ptracer77_del2       =   0.0000000000000000E+00
(PID.TID 0000.0001) %MON trcstat_ptracer78_max        =   8.8153867181972601E-04
(PID.TID 0000.0001) %MON trcstat_ptracer78_min        =   0.0000000000000000E+00
(PID.TID 0000.0001) %MON trcstat_ptracer78_mean       =   2.6284899836225207E-05
(PID.TID 0000.0001) %MON trcstat_ptracer78_sd         =   1.3780694875415345E-04
(PID.TID 0000.0001) %MON trcstat_ptracer78_del2       =   0.0000000000000000E+00
(PID.TID 0000.0001) %MON trcstat_ptracer79_max        =   8.8153867181972601E-04
(PID.TID 0000.0001) %MON trcstat_ptracer79_min        =   0.0000000000000000E+00
(PID.TID 0000.0001) %MON trcstat_ptracer79_mean       =   2.6284899836225207E-05
(PID.TID 0000.0001) %MON trcstat_ptracer79_sd         =   1.3780694875415345E-04
(PID.TID 0000.0001) %MON trcstat_ptracer79_del2       =   0.0000000000000000E+00
(PID.TID 0000.0001) %MON trcstat_ptracer80_max        =   8.8153867181972601E-04
(PID.TID 0000.0001) %MON trcstat_ptracer80_min        =   0.0000000000000000E+00
(PID.TID 0000.0001) %MON trcstat_ptracer80_mean       =   2.6284899836225207E-05
(PID.TID 0000.0001) %MON trcstat_ptracer80_sd         =   1.3780694875415345E-04
(PID.TID 0000.0001) %MON trcstat_ptracer80_del2       =   0.0000000000000000E+00
(PID.TID 0000.0001) %MON trcstat_ptracer81_max        =   8.8153867181972601E-04
(PID.TID 0000.0001) %MON trcstat_ptracer81_min        =   0.0000000000000000E+00
(PID.TID 0000.0001) %MON trcstat_ptracer81_mean       =   2.6284899836225207E-05
(PID.TID 0000.0001) %MON trcstat_ptracer81_sd         =   1.3780694875415345E-04
(PID.TID 0000.0001) %MON trcstat_ptracer81_del2       =   0.0000000000000000E+00
(PID.TID 0000.0001) %MON trcstat_ptracer82_max        =   8.8153867181972601E-04
(PID.TID 0000.0001) %MON trcstat_ptracer82_min        =   0.0000000000000000E+00
(PID.TID 0000.0001) %MON trcstat_ptracer82_mean       =   2.6284899836225207E-05
(PID.TID 0000.0001) %MON trcstat_ptracer82_sd         =   1.3780694875415345E-04
(PID.TID 0000.0001) %MON trcstat_ptracer82_del2       =   0.0000000000000000E+00
(PID.TID 0000.0001) %MON trcstat_ptracer83_max        =   8.8153867181972601E-04
(PID.TID 0000.0001) %MON trcstat_ptracer83_min        =   0.0000000000000000E+00
(PID.TID 0000.0001) %MON trcstat_ptracer83_mean       =   2.6284899836225207E-05
(PID.TID 0000.0001) %MON trcstat_ptracer83_sd         =   1.3780694875415345E-04
(PID.TID 0000.0001) %MON trcstat_ptracer83_del2       =   0.0000000000000000E+00
(PID.TID 0000.0001) %MON trcstat_ptracer84_max        =   8.8153867181972601E-04
(PID.TID 0000.0001) %MON trcstat_ptracer84_min        =   0.0000000000000000E+00
(PID.TID 0000.0001) %MON trcstat_ptracer84_mean       =   2.6284899836225207E-05
(PID.TID 0000.0001) %MON trcstat_ptracer84_sd         =   1.3780694875415345E-04
(PID.TID 0000.0001) %MON trcstat_ptracer84_del2       =   0.0000000000000000E+00
(PID.TID 0000.0001) %MON trcstat_ptracer85_max        =   8.8153867181972601E-04
(PID.TID 0000.0001) %MON trcstat_ptracer85_min        =   0.0000000000000000E+00
(PID.TID 0000.0001) %MON trcstat_ptracer85_mean       =   2.6284899836225207E-05
(PID.TID 0000.0001) %MON trcstat_ptracer85_sd         =   1.3780694875415345E-04
(PID.TID 0000.0001) %MON trcstat_ptracer85_del2       =   0.0000000000000000E+00
(PID.TID 0000.0001) %MON trcstat_ptracer86_max        =   8.8153867181972601E-04
(PID.TID 0000.0001) %MON trcstat_ptracer86_min        =   0.0000000000000000E+00
(PID.TID 0000.0001) %MON trcstat_ptracer86_mean       =   2.6284899836225207E-05
(PID.TID 0000.0001) %MON trcstat_ptracer86_sd         =   1.3780694875415345E-04
(PID.TID 0000.0001) %MON trcstat_ptracer86_del2       =   0.0000000000000000E+00
(PID.TID 0000.0001) %MON trcstat_ptracer87_max        =   8.8153867181972601E-04
(PID.TID 0000.0001) %MON trcstat_ptracer87_min        =   0.0000000000000000E+00
(PID.TID 0000.0001) %MON trcstat_ptracer87_mean       =   2.6284899836225207E-05
(PID.TID 0000.0001) %MON trcstat_ptracer87_sd         =   1.3780694875415345E-04
(PID.TID 0000.0001) %MON trcstat_ptracer87_del2       =   0.0000000000000000E+00
(PID.TID 0000.0001) %MON trcstat_ptracer88_max        =   8.8153867181972601E-04
(PID.TID 0000.0001) %MON trcstat_ptracer88_min        =   0.0000000000000000E+00
(PID.TID 0000.0001) %MON trcstat_ptracer88_mean       =   2.6284899836225207E-05
(PID.TID 0000.0001) %MON trcstat_ptracer88_sd         =   1.3780694875415345E-04
(PID.TID 0000.0001) %MON trcstat_ptracer88_del2       =   0.0000000000000000E+00
(PID.TID 0000.0001) %MON trcstat_ptracer89_max        =   8.8153867181972601E-04
(PID.TID 0000.0001) %MON trcstat_ptracer89_min        =   0.0000000000000000E+00
(PID.TID 0000.0001) %MON trcstat_ptracer89_mean       =   2.6284899836225207E-05
(PID.TID 0000.0001) %MON trcstat_ptracer89_sd         =   1.3780694875415345E-04
(PID.TID 0000.0001) %MON trcstat_ptracer89_del2       =   0.0000000000000000E+00
(PID.TID 0000.0001) %MON trcstat_ptracer90_max        =   8.8153867181972601E-04
(PID.TID 0000.0001) %MON trcstat_ptracer90_min        =   0.0000000000000000E+00
(PID.TID 0000.0001) %MON trcstat_ptracer90_mean       =   2.6284899836225207E-05
(PID.TID 0000.0001) %MON trcstat_ptracer90_sd         =   1.3780694875415345E-04
(PID.TID 0000.0001) %MON trcstat_ptracer90_del2       =   0.0000000000000000E+00
(PID.TID 0000.0001) %MON trcstat_ptracer91_max        =   8.8153867181972601E-04
(PID.TID 0000.0001) %MON trcstat_ptracer91_min        =   0.0000000000000000E+00
(PID.TID 0000.0001) %MON trcstat_ptracer91_mean       =   2.6284899836225207E-05
(PID.TID 0000.0001) %MON trcstat_ptracer91_sd         =   1.3780694875415345E-04
(PID.TID 0000.0001) %MON trcstat_ptracer91_del2       =   0.0000000000000000E+00
(PID.TID 0000.0001) %MON trcstat_ptracer92_max        =   8.8153867181972601E-04
(PID.TID 0000.0001) %MON trcstat_ptracer92_min        =   0.0000000000000000E+00
(PID.TID 0000.0001) %MON trcstat_ptracer92_mean       =   2.6284899836225207E-05
(PID.TID 0000.0001) %MON trcstat_ptracer92_sd         =   1.3780694875415345E-04
(PID.TID 0000.0001) %MON trcstat_ptracer92_del2       =   0.0000000000000000E+00
(PID.TID 0000.0001) %MON trcstat_ptracer93_max        =   8.8153867181972601E-04
(PID.TID 0000.0001) %MON trcstat_ptracer93_min        =   0.0000000000000000E+00
(PID.TID 0000.0001) %MON trcstat_ptracer93_mean       =   2.6284899836225207E-05
(PID.TID 0000.0001) %MON trcstat_ptracer93_sd         =   1.3780694875415345E-04
(PID.TID 0000.0001) %MON trcstat_ptracer93_del2       =   0.0000000000000000E+00
(PID.TID 0000.0001) %MON trcstat_ptracer94_max        =   8.8153867181972601E-04
(PID.TID 0000.0001) %MON trcstat_ptracer94_min        =   0.0000000000000000E+00
(PID.TID 0000.0001) %MON trcstat_ptracer94_mean       =   2.6284899836225207E-05
(PID.TID 0000.0001) %MON trcstat_ptracer94_sd         =   1.3780694875415345E-04
(PID.TID 0000.0001) %MON trcstat_ptracer94_del2       =   0.0000000000000000E+00
(PID.TID 0000.0001) %MON trcstat_ptracer95_max        =   8.8153867181972601E-04
(PID.TID 0000.0001) %MON trcstat_ptracer95_min        =   0.0000000000000000E+00
(PID.TID 0000.0001) %MON trcstat_ptracer95_mean       =   2.6284899836225207E-05
(PID.TID 0000.0001) %MON trcstat_ptracer95_sd         =   1.3780694875415345E-04
(PID.TID 0000.0001) %MON trcstat_ptracer95_del2       =   0.0000000000000000E+00
(PID.TID 0000.0001) %MON trcstat_ptracer96_max        =   1.2432850748922419E-07
(PID.TID 0000.0001) %MON trcstat_ptracer96_min        =   0.0000000000000000E+00
(PID.TID 0000.0001) %MON trcstat_ptracer96_mean       =   1.6442399905699555E-08
(PID.TID 0000.0001) %MON trcstat_ptracer96_sd         =   3.0074086738691421E-08
(PID.TID 0000.0001) %MON trcstat_ptracer96_del2       =   0.0000000000000000E+00
(PID.TID 0000.0001) %MON trcstat_ptracer97_max        =   1.2432850748922419E-07
(PID.TID 0000.0001) %MON trcstat_ptracer97_min        =   0.0000000000000000E+00
(PID.TID 0000.0001) %MON trcstat_ptracer97_mean       =   1.6442399905699555E-08
(PID.TID 0000.0001) %MON trcstat_ptracer97_sd         =   3.0074086738691421E-08
(PID.TID 0000.0001) %MON trcstat_ptracer97_del2       =   0.0000000000000000E+00
(PID.TID 0000.0001) %MON time_tsnumber                =                     1
(PID.TID 0000.0001) %MON time_secondsf                =   3.6000000000000000E+03
(PID.TID 0000.0001) %MON dynstat_eta_max              =   0.0000000000000000E+00
(PID.TID 0000.0001) %MON dynstat_eta_min              =   0.0000000000000000E+00
(PID.TID 0000.0001) %MON dynstat_eta_mean             =   0.0000000000000000E+00
(PID.TID 0000.0001) %MON dynstat_eta_sd               =   0.0000000000000000E+00
(PID.TID 0000.0001) %MON dynstat_eta_del2             =   0.0000000000000000E+00
(PID.TID 0000.0001) %MON dynstat_uvel_max             =   0.0000000000000000E+00
(PID.TID 0000.0001) %MON dynstat_uvel_min             =   0.0000000000000000E+00
(PID.TID 0000.0001) %MON dynstat_uvel_mean            =   0.0000000000000000E+00
(PID.TID 0000.0001) %MON dynstat_uvel_sd              =   0.0000000000000000E+00
(PID.TID 0000.0001) %MON dynstat_uvel_del2            =   0.0000000000000000E+00
(PID.TID 0000.0001) %MON dynstat_vvel_max             =   0.0000000000000000E+00
(PID.TID 0000.0001) %MON dynstat_vvel_min             =   0.0000000000000000E+00
(PID.TID 0000.0001) %MON dynstat_vvel_mean            =   0.0000000000000000E+00
(PID.TID 0000.0001) %MON dynstat_vvel_sd              =   0.0000000000000000E+00
(PID.TID 0000.0001) %MON dynstat_vvel_del2            =   0.0000000000000000E+00
(PID.TID 0000.0001) %MON dynstat_wvel_max             =   0.0000000000000000E+00
(PID.TID 0000.0001) %MON dynstat_wvel_min             =   0.0000000000000000E+00
(PID.TID 0000.0001) %MON dynstat_wvel_mean            =   0.0000000000000000E+00
(PID.TID 0000.0001) %MON dynstat_wvel_sd              =   0.0000000000000000E+00
(PID.TID 0000.0001) %MON dynstat_wvel_del2            =   0.0000000000000000E+00
(PID.TID 0000.0001) %MON dynstat_theta_max            =   2.6335817374515290E+01
(PID.TID 0000.0001) %MON dynstat_theta_min            =   2.6737003185747747E+00
(PID.TID 0000.0001) %MON dynstat_theta_mean           =   5.4735670012030040E+00
(PID.TID 0000.0001) %MON dynstat_theta_sd             =   5.1970860626953339E+00
(PID.TID 0000.0001) %MON dynstat_theta_del2           =   0.0000000000000000E+00
(PID.TID 0000.0001) %MON dynstat_salt_max             =   3.5000000000000000E+01
(PID.TID 0000.0001) %MON dynstat_salt_min             =   3.5000000000000000E+01
(PID.TID 0000.0001) %MON dynstat_salt_mean            =   3.5000000000000007E+01
(PID.TID 0000.0001) %MON dynstat_salt_sd              =   7.1054273576010019E-15
(PID.TID 0000.0001) %MON dynstat_salt_del2            =   0.0000000000000000E+00
(PID.TID 0000.0001) %MON dynstat_sst_max              =   2.6335817374515290E+01
(PID.TID 0000.0001) %MON dynstat_sst_min              =   2.6335817374515290E+01
(PID.TID 0000.0001) %MON dynstat_sst_mean             =   2.6335817374515290E+01
(PID.TID 0000.0001) %MON dynstat_sst_sd               =   0.0000000000000000E+00
(PID.TID 0000.0001) %MON dynstat_sst_del2             =   0.0000000000000000E+00
(PID.TID 0000.0001) %MON dynstat_sss_max              =   3.5000000000000000E+01
(PID.TID 0000.0001) %MON dynstat_sss_min              =   3.5000000000000000E+01
(PID.TID 0000.0001) %MON dynstat_sss_mean             =   3.5000000000000000E+01
(PID.TID 0000.0001) %MON dynstat_sss_sd               =   0.0000000000000000E+00
(PID.TID 0000.0001) %MON dynstat_sss_del2             =   0.0000000000000000E+00
(PID.TID 0000.0001) %MON forcing_qnet_max             =   0.0000000000000000E+00
(PID.TID 0000.0001) %MON forcing_qnet_min             =   0.0000000000000000E+00
(PID.TID 0000.0001) %MON forcing_qnet_mean            =   0.0000000000000000E+00
(PID.TID 0000.0001) %MON forcing_qnet_sd              =   0.0000000000000000E+00
(PID.TID 0000.0001) %MON forcing_qnet_del2            =   0.0000000000000000E+00
(PID.TID 0000.0001) %MON forcing_qsw_max              =   0.0000000000000000E+00
(PID.TID 0000.0001) %MON forcing_qsw_min              =   0.0000000000000000E+00
(PID.TID 0000.0001) %MON forcing_qsw_mean             =   0.0000000000000000E+00
(PID.TID 0000.0001) %MON forcing_qsw_sd               =   0.0000000000000000E+00
(PID.TID 0000.0001) %MON forcing_qsw_del2             =   0.0000000000000000E+00
(PID.TID 0000.0001) %MON forcing_empmr_max            =   0.0000000000000000E+00
(PID.TID 0000.0001) %MON forcing_empmr_min            =   0.0000000000000000E+00
(PID.TID 0000.0001) %MON forcing_empmr_mean           =   0.0000000000000000E+00
(PID.TID 0000.0001) %MON forcing_empmr_sd             =   0.0000000000000000E+00
(PID.TID 0000.0001) %MON forcing_empmr_del2           =   0.0000000000000000E+00
(PID.TID 0000.0001) %MON forcing_fu_max               =   0.0000000000000000E+00
(PID.TID 0000.0001) %MON forcing_fu_min               =   0.0000000000000000E+00
(PID.TID 0000.0001) %MON forcing_fu_mean              =   0.0000000000000000E+00
(PID.TID 0000.0001) %MON forcing_fu_sd                =   0.0000000000000000E+00
(PID.TID 0000.0001) %MON forcing_fu_del2              =   0.0000000000000000E+00
(PID.TID 0000.0001) %MON forcing_fv_max               =   0.0000000000000000E+00
(PID.TID 0000.0001) %MON forcing_fv_min               =   0.0000000000000000E+00
(PID.TID 0000.0001) %MON forcing_fv_mean              =   0.0000000000000000E+00
(PID.TID 0000.0001) %MON forcing_fv_sd                =   0.0000000000000000E+00
(PID.TID 0000.0001) %MON forcing_fv_del2              =   0.0000000000000000E+00
(PID.TID 0000.0001) %MON advcfl_uvel_max              =   0.0000000000000000E+00
(PID.TID 0000.0001) %MON advcfl_vvel_max              =   0.0000000000000000E+00
(PID.TID 0000.0001) %MON advcfl_wvel_max              =   0.0000000000000000E+00
(PID.TID 0000.0001) %MON advcfl_W_hf_max              =   0.0000000000000000E+00
(PID.TID 0000.0001) %MON pe_b_mean                    =   0.0000000000000000E+00
(PID.TID 0000.0001) %MON ke_max                       =   0.0000000000000000E+00
(PID.TID 0000.0001) %MON ke_mean                      =   0.0000000000000000E+00
(PID.TID 0000.0001) %MON ke_vol                       =   4.1199767883484609E+13
(PID.TID 0000.0001) %MON vort_r_min                   =   0.0000000000000000E+00
(PID.TID 0000.0001) %MON vort_r_max                   =   0.0000000000000000E+00
(PID.TID 0000.0001) %MON vort_a_mean                  =  -4.5067801836624727E-05
(PID.TID 0000.0001) %MON vort_a_sd                    =  -4.1359030627651384E-25
(PID.TID 0000.0001) %MON vort_p_mean                  =  -4.5067801836624727E-05
(PID.TID 0000.0001) %MON vort_p_sd                    =   0.0000000000000000E+00
(PID.TID 0000.0001) %MON surfExpan_theta_mean         =   0.0000000000000000E+00
(PID.TID 0000.0001) %MON surfExpan_salt_mean          =   0.0000000000000000E+00
(PID.TID 0000.0001) %MON trcstat_ptracer01_max        =                      NAN
(PID.TID 0000.0001) %MON trcstat_ptracer01_min        =                      NAN
(PID.TID 0000.0001) %MON trcstat_ptracer01_mean       =                      NAN
(PID.TID 0000.0001) %MON trcstat_ptracer01_sd         =                      NAN
(PID.TID 0000.0001) %MON trcstat_ptracer01_del2       =                      NAN
(PID.TID 0000.0001) %MON trcstat_ptracer02_max        =   2.5601446600784859E-02
(PID.TID 0000.0001) %MON trcstat_ptracer02_min        =   1.8763301829745543E-07
(PID.TID 0000.0001) %MON trcstat_ptracer02_mean       =   6.0383466450043084E-04
(PID.TID 0000.0001) %MON trcstat_ptracer02_sd         =   3.2459878790106677E-03
(PID.TID 0000.0001) %MON trcstat_ptracer02_del2       =   0.0000000000000000E+00
(PID.TID 0000.0001) %MON trcstat_ptracer03_max        =   1.8319603314092166E-02
(PID.TID 0000.0001) %MON trcstat_ptracer03_min        =   3.8791489719393813E-06
(PID.TID 0000.0001) %MON trcstat_ptracer03_mean       =   6.0487918502645597E-04
(PID.TID 0000.0001) %MON trcstat_ptracer03_sd         =   1.9447154462183542E-03
(PID.TID 0000.0001) %MON trcstat_ptracer03_del2       =   0.0000000000000000E+00
(PID.TID 0000.0001) %MON trcstat_ptracer04_max        =   3.3903497946886560E+01
(PID.TID 0000.0001) %MON trcstat_ptracer04_min        =   4.6385899059020796E-02
(PID.TID 0000.0001) %MON trcstat_ptracer04_mean       =   2.3502391134219938E+01
(PID.TID 0000.0001) %MON trcstat_ptracer04_sd         =   7.8161988135711420E+00
(PID.TID 0000.0001) %MON trcstat_ptracer04_del2       =   0.0000000000000000E+00
(PID.TID 0000.0001) %MON trcstat_ptracer05_max        =   2.2436999316291510E+00
(PID.TID 0000.0001) %MON trcstat_ptracer05_min        =   2.1025172074285184E-01
(PID.TID 0000.0001) %MON trcstat_ptracer05_mean       =   1.5821338563555316E+00
(PID.TID 0000.0001) %MON trcstat_ptracer05_sd         =   4.6735034580272938E-01
(PID.TID 0000.0001) %MON trcstat_ptracer05_del2       =   0.0000000000000000E+00
(PID.TID 0000.0001) %MON trcstat_ptracer06_max        =   3.9387401347897352E+01
(PID.TID 0000.0001) %MON trcstat_ptracer06_min        =   1.2247981645599244E+00
(PID.TID 0000.0001) %MON trcstat_ptracer06_mean       =   2.9621889359016681E+01
(PID.TID 0000.0001) %MON trcstat_ptracer06_sd         =   1.1270586898050842E+01
(PID.TID 0000.0001) %MON trcstat_ptracer06_del2       =   0.0000000000000000E+00
(PID.TID 0000.0001) %MON trcstat_ptracer07_max        =   1.3001302507702319E-03
(PID.TID 0000.0001) %MON trcstat_ptracer07_min        =   1.2999853935924228E-03
(PID.TID 0000.0001) %MON trcstat_ptracer07_mean       =   1.2999859155568602E-03
(PID.TID 0000.0001) %MON trcstat_ptracer07_sd         =   7.7349190897694121E-09
(PID.TID 0000.0001) %MON trcstat_ptracer07_del2       =   0.0000000000000000E+00
(PID.TID 0000.0001) %MON trcstat_ptracer08_max        =   6.1354170813278563E-01
(PID.TID 0000.0001) %MON trcstat_ptracer08_min        =   2.1626253518310592E-33
(PID.TID 0000.0001) %MON trcstat_ptracer08_mean       =   2.5763149565051786E-02
(PID.TID 0000.0001) %MON trcstat_ptracer08_sd         =   1.1091220071040542E-01
(PID.TID 0000.0001) %MON trcstat_ptracer08_del2       =   0.0000000000000000E+00
(PID.TID 0000.0001) %MON trcstat_ptracer09_max        =   8.1805561084371411E-02
(PID.TID 0000.0001) %MON trcstat_ptracer09_min        =   2.8835004691080788E-34
(PID.TID 0000.0001) %MON trcstat_ptracer09_mean       =   3.4350866086735716E-03
(PID.TID 0000.0001) %MON trcstat_ptracer09_sd         =   1.4788293428054055E-02
(PID.TID 0000.0001) %MON trcstat_ptracer09_del2       =   0.0000000000000000E+00
(PID.TID 0000.0001) %MON trcstat_ptracer10_max        =   5.1128475677732132E-03
(PID.TID 0000.0001) %MON trcstat_ptracer10_min        =   1.8021877931925492E-35
(PID.TID 0000.0001) %MON trcstat_ptracer10_mean       =   2.1469291304209822E-04
(PID.TID 0000.0001) %MON trcstat_ptracer10_sd         =   9.2426833925337844E-04
(PID.TID 0000.0001) %MON trcstat_ptracer10_del2       =   0.0000000000000000E+00
(PID.TID 0000.0001) %MON trcstat_ptracer11_max        =   5.1128472080615451E-06
(PID.TID 0000.0001) %MON trcstat_ptracer11_min        =   1.8021850847722475E-38
(PID.TID 0000.0001) %MON trcstat_ptracer11_mean       =   2.1469291334847370E-07
(PID.TID 0000.0001) %MON trcstat_ptracer11_sd         =   9.2426833891161075E-07
(PID.TID 0000.0001) %MON trcstat_ptracer11_del2       =   0.0000000000000000E+00
(PID.TID 0000.0001) %MON trcstat_ptracer12_max        =   3.2667984171676205E-02
(PID.TID 0000.0001) %MON trcstat_ptracer12_min        =   1.4086367136037866E-04
(PID.TID 0000.0001) %MON trcstat_ptracer12_mean       =   9.4668182519532084E-03
(PID.TID 0000.0001) %MON trcstat_ptracer12_sd         =   1.1587590816194641E-02
(PID.TID 0000.0001) %MON trcstat_ptracer12_del2       =   0.0000000000000000E+00
(PID.TID 0000.0001) %MON trcstat_ptracer13_max        =   4.3557312228901610E-03
(PID.TID 0000.0001) %MON trcstat_ptracer13_min        =   1.8781822848050488E-05
(PID.TID 0000.0001) %MON trcstat_ptracer13_mean       =   1.2622424335937612E-03
(PID.TID 0000.0001) %MON trcstat_ptracer13_sd         =   1.5450121088259523E-03
(PID.TID 0000.0001) %MON trcstat_ptracer13_del2       =   0.0000000000000000E+00
(PID.TID 0000.0001) %MON trcstat_ptracer14_max        =   2.7223320143063506E-04
(PID.TID 0000.0001) %MON trcstat_ptracer14_min        =   1.1738639280031555E-06
(PID.TID 0000.0001) %MON trcstat_ptracer14_mean       =   7.8890152099610073E-05
(PID.TID 0000.0001) %MON trcstat_ptracer14_sd         =   9.6563256801622017E-05
(PID.TID 0000.0001) %MON trcstat_ptracer14_del2       =   0.0000000000000000E+00
(PID.TID 0000.0001) %MON trcstat_ptracer15_max        =   1.6249560323348945E-02
(PID.TID 0000.0001) %MON trcstat_ptracer15_min        =   1.1386925448277799E-03
(PID.TID 0000.0001) %MON trcstat_ptracer15_mean       =   5.4889531630196910E-03
(PID.TID 0000.0001) %MON trcstat_ptracer15_sd         =   5.1715451267890502E-03
(PID.TID 0000.0001) %MON trcstat_ptracer15_del2       =   0.0000000000000000E+00
(PID.TID 0000.0001) %MON trcstat_ptracer16_max        =   2.7223321719345594E-07
(PID.TID 0000.0001) %MON trcstat_ptracer16_min        =   1.1738637993409111E-09
(PID.TID 0000.0001) %MON trcstat_ptracer16_mean       =   7.8890152625791140E-08
(PID.TID 0000.0001) %MON trcstat_ptracer16_sd         =   9.6563258859069986E-08
(PID.TID 0000.0001) %MON trcstat_ptracer16_del2       =   0.0000000000000000E+00
(PID.TID 0000.0001) %MON trcstat_ptracer17_max        =                      NAN
(PID.TID 0000.0001) %MON trcstat_ptracer17_min        =                      NAN
(PID.TID 0000.0001) %MON trcstat_ptracer17_mean       =                      NAN
(PID.TID 0000.0001) %MON trcstat_ptracer17_sd         =                      NAN
(PID.TID 0000.0001) %MON trcstat_ptracer17_del2       =                      NAN
(PID.TID 0000.0001) %MON trcstat_ptracer18_max        =   8.7969919372276771E-04
(PID.TID 0000.0001) %MON trcstat_ptracer18_min        =   1.1455106270729970E-34
(PID.TID 0000.0001) %MON trcstat_ptracer18_mean       =   2.6248360722441104E-05
(PID.TID 0000.0001) %MON trcstat_ptracer18_sd         =   1.3756614647864911E-04
(PID.TID 0000.0001) %MON trcstat_ptracer18_del2       =   0.0000000000000000E+00
(PID.TID 0000.0001) %MON trcstat_ptracer19_max        =   8.8802297861264440E-04
(PID.TID 0000.0001) %MON trcstat_ptracer19_min        =   1.1455106270729970E-34
(PID.TID 0000.0001) %MON trcstat_ptracer19_mean       =   2.6445267322958777E-05
(PID.TID 0000.0001) %MON trcstat_ptracer19_sd         =   1.3873137381679947E-04
(PID.TID 0000.0001) %MON trcstat_ptracer19_del2       =   0.0000000000000000E+00
(PID.TID 0000.0001) %MON trcstat_ptracer20_max        =   8.7785894917777297E-04
(PID.TID 0000.0001) %MON trcstat_ptracer20_min        =   3.9452493772007623E-37
(PID.TID 0000.0001) %MON trcstat_ptracer20_mean       =   2.6175379413909239E-05
(PID.TID 0000.0001) %MON trcstat_ptracer20_sd         =   1.3723205447391259E-04
(PID.TID 0000.0001) %MON trcstat_ptracer20_del2       =   0.0000000000000000E+00
(PID.TID 0000.0001) %MON trcstat_ptracer21_max        =   8.8323645073775736E-04
(PID.TID 0000.0001) %MON trcstat_ptracer21_min        =   3.9452493772007623E-37
(PID.TID 0000.0001) %MON trcstat_ptracer21_mean       =   2.6326670924542751E-05
(PID.TID 0000.0001) %MON trcstat_ptracer21_sd         =   1.3807541267506004E-04
(PID.TID 0000.0001) %MON trcstat_ptracer21_del2       =   0.0000000000000000E+00
(PID.TID 0000.0001) %MON trcstat_ptracer22_max        =   8.8563341343462782E-04
(PID.TID 0000.0001) %MON trcstat_ptracer22_min        =   1.1455106270729970E-34
(PID.TID 0000.0001) %MON trcstat_ptracer22_mean       =   2.6382469340273235E-05
(PID.TID 0000.0001) %MON trcstat_ptracer22_sd         =   1.3837177626137989E-04
(PID.TID 0000.0001) %MON trcstat_ptracer22_del2       =   0.0000000000000000E+00
(PID.TID 0000.0001) %MON trcstat_ptracer23_max        =   8.7785894917779281E-04
(PID.TID 0000.0001) %MON trcstat_ptracer23_min        =   3.9452493772007623E-37
(PID.TID 0000.0001) %MON trcstat_ptracer23_mean       =   2.6175379413909839E-05
(PID.TID 0000.0001) %MON trcstat_ptracer23_sd         =   1.3723205447391587E-04
(PID.TID 0000.0001) %MON trcstat_ptracer23_del2       =   0.0000000000000000E+00
(PID.TID 0000.0001) %MON trcstat_ptracer24_max        =   8.8343667112285860E-04
(PID.TID 0000.0001) %MON trcstat_ptracer24_min        =   3.9452493772007623E-37
(PID.TID 0000.0001) %MON trcstat_ptracer24_mean       =   2.6339433287440513E-05
(PID.TID 0000.0001) %MON trcstat_ptracer24_sd         =   1.3813263311540842E-04
(PID.TID 0000.0001) %MON trcstat_ptracer24_del2       =   0.0000000000000000E+00
(PID.TID 0000.0001) %MON trcstat_ptracer25_max        =   8.8145234118929417E-04
(PID.TID 0000.0001) %MON trcstat_ptracer25_min        =   3.9452493772007623E-37
(PID.TID 0000.0001) %MON trcstat_ptracer25_mean       =   2.6258699770615597E-05
(PID.TID 0000.0001) %MON trcstat_ptracer25_sd         =   1.3773039274563554E-04
(PID.TID 0000.0001) %MON trcstat_ptracer25_del2       =   0.0000000000000000E+00
(PID.TID 0000.0001) %MON trcstat_ptracer26_max        =   8.7785894917781482E-04
(PID.TID 0000.0001) %MON trcstat_ptracer26_min        =   3.9452493772007623E-37
(PID.TID 0000.0001) %MON trcstat_ptracer26_mean       =   2.6175408481081441E-05
(PID.TID 0000.0001) %MON trcstat_ptracer26_sd         =   1.3723205109921374E-04
(PID.TID 0000.0001) %MON trcstat_ptracer26_del2       =   0.0000000000000000E+00
(PID.TID 0000.0001) %MON trcstat_ptracer27_max        =   8.8241972512780888E-04
(PID.TID 0000.0001) %MON trcstat_ptracer27_min        =   3.9452493772007623E-37
(PID.TID 0000.0001) %MON trcstat_ptracer27_mean       =   2.6303340519228495E-05
(PID.TID 0000.0001) %MON trcstat_ptracer27_sd         =   1.3795211179222055E-04
(PID.TID 0000.0001) %MON trcstat_ptracer27_del2       =   0.0000000000000000E+00
(PID.TID 0000.0001) %MON trcstat_ptracer28_max        =   8.7784040716867525E-04
(PID.TID 0000.0001) %MON trcstat_ptracer28_min        =   1.1455106270729970E-34
(PID.TID 0000.0001) %MON trcstat_ptracer28_mean       =   2.6175379413909286E-05
(PID.TID 0000.0001) %MON trcstat_ptracer28_sd         =   1.3721453422995019E-04
(PID.TID 0000.0001) %MON trcstat_ptracer28_del2       =   0.0000000000000000E+00
(PID.TID 0000.0001) %MON trcstat_ptracer29_max        =   8.8341333064941713E-04
(PID.TID 0000.0001) %MON trcstat_ptracer29_min        =   3.9452493772007623E-37
(PID.TID 0000.0001) %MON trcstat_ptracer29_mean       =   2.6334617189335008E-05
(PID.TID 0000.0001) %MON trcstat_ptracer29_sd         =   1.3807495993160791E-04
(PID.TID 0000.0001) %MON trcstat_ptracer29_del2       =   0.0000000000000000E+00
(PID.TID 0000.0001) %MON trcstat_ptracer30_max        =   8.8656871841540758E-04
(PID.TID 0000.0001) %MON trcstat_ptracer30_min        =   1.1455106270729970E-34
(PID.TID 0000.0001) %MON trcstat_ptracer30_mean       =   2.6407785166598093E-05
(PID.TID 0000.0001) %MON trcstat_ptracer30_sd         =   1.3850392374362472E-04
(PID.TID 0000.0001) %MON trcstat_ptracer30_del2       =   0.0000000000000000E+00
(PID.TID 0000.0001) %MON trcstat_ptracer31_max        =   8.7784040723684045E-04
(PID.TID 0000.0001) %MON trcstat_ptracer31_min        =   1.1455106270729970E-34
(PID.TID 0000.0001) %MON trcstat_ptracer31_mean       =   2.6175379415814060E-05
(PID.TID 0000.0001) %MON trcstat_ptracer31_sd         =   1.3721453424020693E-04
(PID.TID 0000.0001) %MON trcstat_ptracer31_del2       =   0.0000000000000000E+00
(PID.TID 0000.0001) %MON trcstat_ptracer32_max        =   8.7785894917774348E-04
(PID.TID 0000.0001) %MON trcstat_ptracer32_min        =   3.9452493772007623E-37
(PID.TID 0000.0001) %MON trcstat_ptracer32_mean       =   2.6175379413907945E-05
(PID.TID 0000.0001) %MON trcstat_ptracer32_sd         =   1.3723205447390685E-04
(PID.TID 0000.0001) %MON trcstat_ptracer32_del2       =   0.0000000000000000E+00
(PID.TID 0000.0001) %MON trcstat_ptracer33_max        =   8.7785894917776126E-04
(PID.TID 0000.0001) %MON trcstat_ptracer33_min        =   3.9452493772007623E-37
(PID.TID 0000.0001) %MON trcstat_ptracer33_mean       =   2.6175379413908456E-05
(PID.TID 0000.0001) %MON trcstat_ptracer33_sd         =   1.3723205447390972E-04
(PID.TID 0000.0001) %MON trcstat_ptracer33_del2       =   0.0000000000000000E+00
(PID.TID 0000.0001) %MON trcstat_ptracer34_max        =   8.7785894917775139E-04
(PID.TID 0000.0001) %MON trcstat_ptracer34_min        =   3.9452493772007623E-37
(PID.TID 0000.0001) %MON trcstat_ptracer34_mean       =   2.6175379413908172E-05
(PID.TID 0000.0001) %MON trcstat_ptracer34_sd         =   1.3723205447390812E-04
(PID.TID 0000.0001) %MON trcstat_ptracer34_del2       =   0.0000000000000000E+00
(PID.TID 0000.0001) %MON trcstat_ptracer35_max        =   8.7785894917777416E-04
(PID.TID 0000.0001) %MON trcstat_ptracer35_min        =   3.9452493772007623E-37
(PID.TID 0000.0001) %MON trcstat_ptracer35_mean       =   2.6175379413909269E-05
(PID.TID 0000.0001) %MON trcstat_ptracer35_sd         =   1.3723205447391276E-04
(PID.TID 0000.0001) %MON trcstat_ptracer35_del2       =   0.0000000000000000E+00
(PID.TID 0000.0001) %MON trcstat_ptracer36_max        =   8.7785894917785851E-04
(PID.TID 0000.0001) %MON trcstat_ptracer36_min        =   3.9452493772007623E-37
(PID.TID 0000.0001) %MON trcstat_ptracer36_mean       =   2.6175379413911655E-05
(PID.TID 0000.0001) %MON trcstat_ptracer36_sd         =   1.3723205447392333E-04
(PID.TID 0000.0001) %MON trcstat_ptracer36_del2       =   0.0000000000000000E+00
(PID.TID 0000.0001) %MON trcstat_ptracer37_max        =   8.8070714711670228E-04
(PID.TID 0000.0001) %MON trcstat_ptracer37_min        =   3.9452493772007623E-37
(PID.TID 0000.0001) %MON trcstat_ptracer37_mean       =   2.6274809826690976E-05
(PID.TID 0000.0001) %MON trcstat_ptracer37_sd         =   1.3774030770375762E-04
(PID.TID 0000.0001) %MON trcstat_ptracer37_del2       =   0.0000000000000000E+00
(PID.TID 0000.0001) %MON trcstat_ptracer38_max        =   8.7785894917785418E-04
(PID.TID 0000.0001) %MON trcstat_ptracer38_min        =   3.9452493772007623E-37
(PID.TID 0000.0001) %MON trcstat_ptracer38_mean       =   2.6175379413911523E-05
(PID.TID 0000.0001) %MON trcstat_ptracer38_sd         =   1.3723205447392265E-04
(PID.TID 0000.0001) %MON trcstat_ptracer38_del2       =   0.0000000000000000E+00
(PID.TID 0000.0001) %MON trcstat_ptracer39_max        =   8.7784040716882086E-04
(PID.TID 0000.0001) %MON trcstat_ptracer39_min        =   1.1455106270729970E-34
(PID.TID 0000.0001) %MON trcstat_ptracer39_mean       =   2.6175379413913620E-05
(PID.TID 0000.0001) %MON trcstat_ptracer39_sd         =   1.3721453422997287E-04
(PID.TID 0000.0001) %MON trcstat_ptracer39_del2       =   0.0000000000000000E+00
(PID.TID 0000.0001) %MON trcstat_ptracer40_max        =   8.8195449037857272E-04
(PID.TID 0000.0001) %MON trcstat_ptracer40_min        =   3.9452493772007623E-37
(PID.TID 0000.0001) %MON trcstat_ptracer40_mean       =   2.6299951283127554E-05
(PID.TID 0000.0001) %MON trcstat_ptracer40_sd         =   1.3787550471025675E-04
(PID.TID 0000.0001) %MON trcstat_ptracer40_del2       =   0.0000000000000000E+00
(PID.TID 0000.0001) %MON trcstat_ptracer41_max        =   8.7784040723684078E-04
(PID.TID 0000.0001) %MON trcstat_ptracer41_min        =   1.1455106270729970E-34
(PID.TID 0000.0001) %MON trcstat_ptracer41_mean       =   2.6175379415814077E-05
(PID.TID 0000.0001) %MON trcstat_ptracer41_sd         =   1.3721453424020698E-04
(PID.TID 0000.0001) %MON trcstat_ptracer41_del2       =   0.0000000000000000E+00
(PID.TID 0000.0001) %MON trcstat_ptracer42_max        =   8.7784040716875668E-04
(PID.TID 0000.0001) %MON trcstat_ptracer42_min        =   1.1455106270729970E-34
(PID.TID 0000.0001) %MON trcstat_ptracer42_mean       =   2.6175482409378319E-05
(PID.TID 0000.0001) %MON trcstat_ptracer42_sd         =   1.3721452333324827E-04
(PID.TID 0000.0001) %MON trcstat_ptracer42_del2       =   0.0000000000000000E+00
(PID.TID 0000.0001) %MON trcstat_ptracer43_max        =   8.7845792318687983E-04
(PID.TID 0000.0001) %MON trcstat_ptracer43_min        =   1.1455106270729970E-34
(PID.TID 0000.0001) %MON trcstat_ptracer43_mean       =   2.6217358676073346E-05
(PID.TID 0000.0001) %MON trcstat_ptracer43_sd         =   1.3739456643445703E-04
(PID.TID 0000.0001) %MON trcstat_ptracer43_del2       =   0.0000000000000000E+00
(PID.TID 0000.0001) %MON trcstat_ptracer44_max        =   8.8354983552655568E-04
(PID.TID 0000.0001) %MON trcstat_ptracer44_min        =   3.9452493772007623E-37
(PID.TID 0000.0001) %MON trcstat_ptracer44_mean       =   2.6333616786616627E-05
(PID.TID 0000.0001) %MON trcstat_ptracer44_sd         =   1.3811711684412863E-04
(PID.TID 0000.0001) %MON trcstat_ptracer44_del2       =   0.0000000000000000E+00
(PID.TID 0000.0001) %MON trcstat_ptracer45_max        =   8.7784040723679914E-04
(PID.TID 0000.0001) %MON trcstat_ptracer45_min        =   1.1455106270729970E-34
(PID.TID 0000.0001) %MON trcstat_ptracer45_mean       =   2.6175379415812844E-05
(PID.TID 0000.0001) %MON trcstat_ptracer45_sd         =   1.3721453424020048E-04
(PID.TID 0000.0001) %MON trcstat_ptracer45_del2       =   0.0000000000000000E+00
(PID.TID 0000.0001) %MON trcstat_ptracer46_max        =   8.7992203919407918E-04
(PID.TID 0000.0001) %MON trcstat_ptracer46_min        =   3.9452493772007623E-37
(PID.TID 0000.0001) %MON trcstat_ptracer46_mean       =   2.6245449390174396E-05
(PID.TID 0000.0001) %MON trcstat_ptracer46_sd         =   1.3758484396081009E-04
(PID.TID 0000.0001) %MON trcstat_ptracer46_del2       =   0.0000000000000000E+00
(PID.TID 0000.0001) %MON trcstat_ptracer47_max        =   8.7784040716870225E-04
(PID.TID 0000.0001) %MON trcstat_ptracer47_min        =   1.1455106270729970E-34
(PID.TID 0000.0001) %MON trcstat_ptracer47_mean       =   2.6175379413910103E-05
(PID.TID 0000.0001) %MON trcstat_ptracer47_sd         =   1.3721453422995439E-04
(PID.TID 0000.0001) %MON trcstat_ptracer47_del2       =   0.0000000000000000E+00
(PID.TID 0000.0001) %MON trcstat_ptracer48_max        =   8.7801480324828428E-04
(PID.TID 0000.0001) %MON trcstat_ptracer48_min        =   3.9452493772007623E-37
(PID.TID 0000.0001) %MON trcstat_ptracer48_mean       =   2.6205795269527719E-05
(PID.TID 0000.0001) %MON trcstat_ptracer48_sd         =   1.3735853383620622E-04
(PID.TID 0000.0001) %MON trcstat_ptracer48_del2       =   0.0000000000000000E+00
(PID.TID 0000.0001) %MON trcstat_ptracer49_max        =   8.8434824492570382E-04
(PID.TID 0000.0001) %MON trcstat_ptracer49_min        =   3.9452493772007623E-37
(PID.TID 0000.0001) %MON trcstat_ptracer49_mean       =   2.6359599382999122E-05
(PID.TID 0000.0001) %MON trcstat_ptracer49_sd         =   1.3825529780342368E-04
(PID.TID 0000.0001) %MON trcstat_ptracer49_del2       =   0.0000000000000000E+00
(PID.TID 0000.0001) %MON trcstat_ptracer50_max        =   8.7784040716867525E-04
(PID.TID 0000.0001) %MON trcstat_ptracer50_min        =   1.1455106270729970E-34
(PID.TID 0000.0001) %MON trcstat_ptracer50_mean       =   2.6175390124487171E-05
(PID.TID 0000.0001) %MON trcstat_ptracer50_sd         =   1.3721453263411173E-04
(PID.TID 0000.0001) %MON trcstat_ptracer50_del2       =   0.0000000000000000E+00
(PID.TID 0000.0001) %MON trcstat_ptracer51_max        =   8.7785894917799339E-04
(PID.TID 0000.0001) %MON trcstat_ptracer51_min        =   3.9452493772007623E-37
[...]
(PID.TID 0000.0001) %MON trcstat_ptracer48_del2       =   0.0000000000000000E+00
(PID.TID 0000.0001) %MON trcstat_ptracer49_max        =   8.9287313606713149E-04
(PID.TID 0000.0001) %MON trcstat_ptracer49_min        =   1.3739850072273390E-35
(PID.TID 0000.0001) %MON trcstat_ptracer49_mean       =   2.6586980246371022E-05
(PID.TID 0000.0001) %MON trcstat_ptracer49_sd         =   1.3961827421772767E-04
(PID.TID 0000.0001) %MON trcstat_ptracer49_del2       =   0.0000000000000000E+00
(PID.TID 0000.0001) %MON trcstat_ptracer50_max        =   8.6683865037598786E-04
(PID.TID 0000.0001) %MON trcstat_ptracer50_min        =   1.6992725818009116E-27
(PID.TID 0000.0001) %MON trcstat_ptracer50_mean       =   2.5849592282907587E-05
(PID.TID 0000.0001) %MON trcstat_ptracer50_sd         =   1.3545287390985194E-04
(PID.TID 0000.0001) %MON trcstat_ptracer50_del2       =   0.0000000000000000E+00
(PID.TID 0000.0001) %MON trcstat_ptracer51_max        =   8.6691171288845329E-04
(PID.TID 0000.0001) %MON trcstat_ptracer51_min        =   1.3739850072273390E-35
(PID.TID 0000.0001) %MON trcstat_ptracer51_mean       =   2.5849548560090289E-05
(PID.TID 0000.0001) %MON trcstat_ptracer51_sd         =   1.3552172203868486E-04
(PID.TID 0000.0001) %MON trcstat_ptracer51_del2       =   0.0000000000000000E+00
(PID.TID 0000.0001) %MON trcstat_ptracer52_max        =   8.9714322976789914E-04
(PID.TID 0000.0001) %MON trcstat_ptracer52_min        =   1.6992725818009116E-27
(PID.TID 0000.0001) %MON trcstat_ptracer52_mean       =   2.6669399743190025E-05
(PID.TID 0000.0001) %MON trcstat_ptracer52_sd         =   1.4000910693819050E-04
(PID.TID 0000.0001) %MON trcstat_ptracer52_del2       =   0.0000000000000000E+00
(PID.TID 0000.0001) %MON trcstat_ptracer53_max        =   8.6683865064443653E-04
(PID.TID 0000.0001) %MON trcstat_ptracer53_min        =   1.6992725818009486E-27
(PID.TID 0000.0001) %MON trcstat_ptracer53_mean       =   2.5849548567568153E-05
(PID.TID 0000.0001) %MON trcstat_ptracer53_sd         =   1.3545288047758563E-04
(PID.TID 0000.0001) %MON trcstat_ptracer53_del2       =   0.0000000000000000E+00
(PID.TID 0000.0001) %MON trcstat_ptracer54_max        =   9.0196743484094726E-04
(PID.TID 0000.0001) %MON trcstat_ptracer54_min        =   1.6992725818009116E-27
(PID.TID 0000.0001) %MON trcstat_ptracer54_mean       =   2.6782935076091937E-05
(PID.TID 0000.0001) %MON trcstat_ptracer54_sd         =   1.4069144820656366E-04
(PID.TID 0000.0001) %MON trcstat_ptracer54_del2       =   0.0000000000000000E+00
(PID.TID 0000.0001) %MON trcstat_ptracer55_max        =   8.8482068625286609E-04
(PID.TID 0000.0001) %MON trcstat_ptracer55_min        =   1.3739850072273390E-35
(PID.TID 0000.0001) %MON trcstat_ptracer55_mean       =   2.6379855972989537E-05
(PID.TID 0000.0001) %MON trcstat_ptracer55_sd         =   1.3830605366544442E-04
(PID.TID 0000.0001) %MON trcstat_ptracer55_del2       =   0.0000000000000000E+00
(PID.TID 0000.0001) %MON trcstat_ptracer56_max        =   8.6691171288759807E-04
(PID.TID 0000.0001) %MON trcstat_ptracer56_min        =   1.3739850072273390E-35
(PID.TID 0000.0001) %MON trcstat_ptracer56_mean       =   2.5849548560065559E-05
(PID.TID 0000.0001) %MON trcstat_ptracer56_sd         =   1.3552172203856185E-04
(PID.TID 0000.0001) %MON trcstat_ptracer56_del2       =   0.0000000000000000E+00
(PID.TID 0000.0001) %MON trcstat_ptracer57_max        =   8.9824363164706089E-04
(PID.TID 0000.0001) %MON trcstat_ptracer57_min        =   1.6992725818009486E-27
(PID.TID 0000.0001) %MON trcstat_ptracer57_mean       =   2.6693581439949891E-05
(PID.TID 0000.0001) %MON trcstat_ptracer57_sd         =   1.4015362522055370E-04
(PID.TID 0000.0001) %MON trcstat_ptracer57_del2       =   0.0000000000000000E+00
(PID.TID 0000.0001) %MON trcstat_ptracer58_max        =   8.6683865064475160E-04
(PID.TID 0000.0001) %MON trcstat_ptracer58_min        =   1.6992725818009486E-27
(PID.TID 0000.0001) %MON trcstat_ptracer58_mean       =   2.5849548567577444E-05
(PID.TID 0000.0001) %MON trcstat_ptracer58_sd         =   1.3545288047763464E-04
(PID.TID 0000.0001) %MON trcstat_ptracer58_del2       =   0.0000000000000000E+00
(PID.TID 0000.0001) %MON trcstat_ptracer59_max        =   8.6691171288796594E-04
(PID.TID 0000.0001) %MON trcstat_ptracer59_min        =   1.3739850072273390E-35
(PID.TID 0000.0001) %MON trcstat_ptracer59_mean       =   2.5849548560076011E-05
(PID.TID 0000.0001) %MON trcstat_ptracer59_sd         =   1.3552172203860893E-04
(PID.TID 0000.0001) %MON trcstat_ptracer59_del2       =   0.0000000000000000E+00
(PID.TID 0000.0001) %MON trcstat_ptracer60_max        =   8.9387225301528937E-04
(PID.TID 0000.0001) %MON trcstat_ptracer60_min        =   1.3739850072273390E-35
(PID.TID 0000.0001) %MON trcstat_ptracer60_mean       =   2.6573565797918752E-05
(PID.TID 0000.0001) %MON trcstat_ptracer60_sd         =   1.3950272831904123E-04
(PID.TID 0000.0001) %MON trcstat_ptracer60_del2       =   0.0000000000000000E+00
(PID.TID 0000.0001) %MON trcstat_ptracer61_max        =   8.8634492327179491E-04
(PID.TID 0000.0001) %MON trcstat_ptracer61_min        =   1.3739850072273390E-35
(PID.TID 0000.0001) %MON trcstat_ptracer61_mean       =   2.6411165481239461E-05
(PID.TID 0000.0001) %MON trcstat_ptracer61_sd         =   1.3860890870802067E-04
(PID.TID 0000.0001) %MON trcstat_ptracer61_del2       =   0.0000000000000000E+00
(PID.TID 0000.0001) %MON trcstat_ptracer62_max        =   8.6683865037616317E-04
(PID.TID 0000.0001) %MON trcstat_ptracer62_min        =   1.6992725818009116E-27
(PID.TID 0000.0001) %MON trcstat_ptracer62_mean       =   2.5849548560072356E-05
(PID.TID 0000.0001) %MON trcstat_ptracer62_sd         =   1.3545288043723735E-04
(PID.TID 0000.0001) %MON trcstat_ptracer62_del2       =   0.0000000000000000E+00
(PID.TID 0000.0001) %MON trcstat_ptracer63_max        =   8.7623263116265318E-04
(PID.TID 0000.0001) %MON trcstat_ptracer63_min        =   1.6992725818009486E-27
(PID.TID 0000.0001) %MON trcstat_ptracer63_mean       =   2.6198483844152486E-05
(PID.TID 0000.0001) %MON trcstat_ptracer63_sd         =   1.3714757469465157E-04
(PID.TID 0000.0001) %MON trcstat_ptracer63_del2       =   0.0000000000000000E+00
(PID.TID 0000.0001) %MON trcstat_ptracer64_max        =   8.6691171288773468E-04
(PID.TID 0000.0001) %MON trcstat_ptracer64_min        =   1.3739850072273390E-35
(PID.TID 0000.0001) %MON trcstat_ptracer64_mean       =   2.5849548560069208E-05
(PID.TID 0000.0001) %MON trcstat_ptracer64_sd         =   1.3552172203857294E-04
(PID.TID 0000.0001) %MON trcstat_ptracer64_del2       =   0.0000000000000000E+00
(PID.TID 0000.0001) %MON trcstat_ptracer65_max        =   8.9635753456424625E-04
(PID.TID 0000.0001) %MON trcstat_ptracer65_min        =   1.6992725818009486E-27
(PID.TID 0000.0001) %MON trcstat_ptracer65_mean       =   2.6632918582246128E-05
(PID.TID 0000.0001) %MON trcstat_ptracer65_sd         =   1.3984213796249166E-04
(PID.TID 0000.0001) %MON trcstat_ptracer65_del2       =   0.0000000000000000E+00
(PID.TID 0000.0001) %MON trcstat_ptracer66_max        =   8.6683865037614724E-04
(PID.TID 0000.0001) %MON trcstat_ptracer66_min        =   1.6992725818009116E-27
(PID.TID 0000.0001) %MON trcstat_ptracer66_mean       =   2.5849678403339845E-05
(PID.TID 0000.0001) %MON trcstat_ptracer66_sd         =   1.3545286338651846E-04
(PID.TID 0000.0001) %MON trcstat_ptracer66_del2       =   0.0000000000000000E+00
(PID.TID 0000.0001) %MON trcstat_ptracer67_max        =   8.7223249184308798E-04
(PID.TID 0000.0001) %MON trcstat_ptracer67_min        =   1.6992725818009116E-27
(PID.TID 0000.0001) %MON trcstat_ptracer67_mean       =   2.6090878373042035E-05
(PID.TID 0000.0001) %MON trcstat_ptracer67_sd         =   1.3655746062650630E-04
(PID.TID 0000.0001) %MON trcstat_ptracer67_del2       =   0.0000000000000000E+00
(PID.TID 0000.0001) %MON trcstat_ptracer68_max        =   8.6683865064434698E-04
(PID.TID 0000.0001) %MON trcstat_ptracer68_min        =   1.6992725818009486E-27
(PID.TID 0000.0001) %MON trcstat_ptracer68_mean       =   2.5849548567565494E-05
(PID.TID 0000.0001) %MON trcstat_ptracer68_sd         =   1.3545288047757167E-04
(PID.TID 0000.0001) %MON trcstat_ptracer68_del2       =   0.0000000000000000E+00
(PID.TID 0000.0001) %MON trcstat_ptracer69_max        =   8.8913505658713243E-04
(PID.TID 0000.0001) %MON trcstat_ptracer69_min        =   1.3739850072273390E-35
(PID.TID 0000.0001) %MON trcstat_ptracer69_mean       =   2.6479335411968102E-05
(PID.TID 0000.0001) %MON trcstat_ptracer69_sd         =   1.3900244611334098E-04
(PID.TID 0000.0001) %MON trcstat_ptracer69_del2       =   0.0000000000000000E+00
(PID.TID 0000.0001) %MON trcstat_ptracer70_max        =   9.0379967746238962E-04
(PID.TID 0000.0001) %MON trcstat_ptracer70_min        =   1.6992725818009486E-27
(PID.TID 0000.0001) %MON trcstat_ptracer70_mean       =   2.6807399055517830E-05
(PID.TID 0000.0001) %MON trcstat_ptracer70_sd         =   1.4087575868918653E-04
(PID.TID 0000.0001) %MON trcstat_ptracer70_del2       =   0.0000000000000000E+00
(PID.TID 0000.0001) %MON trcstat_ptracer71_max        =   8.9431108660238592E-04
(PID.TID 0000.0001) %MON trcstat_ptracer71_min        =   1.6992725818009486E-27
(PID.TID 0000.0001) %MON trcstat_ptracer71_mean       =   2.6599237294139318E-05
(PID.TID 0000.0001) %MON trcstat_ptracer71_sd         =   1.3957016038091069E-04
(PID.TID 0000.0001) %MON trcstat_ptracer71_del2       =   0.0000000000000000E+00
(PID.TID 0000.0001) %MON trcstat_ptracer72_max        =   8.6691171288771419E-04
(PID.TID 0000.0001) %MON trcstat_ptracer72_min        =   1.3739850072273390E-35
(PID.TID 0000.0001) %MON trcstat_ptracer72_mean       =   2.5852373169905081E-05
(PID.TID 0000.0001) %MON trcstat_ptracer72_sd         =   1.3552856068656244E-04
(PID.TID 0000.0001) %MON trcstat_ptracer72_del2       =   0.0000000000000000E+00
(PID.TID 0000.0001) %MON trcstat_ptracer73_max        =   9.0127473911854651E-04
(PID.TID 0000.0001) %MON trcstat_ptracer73_min        =   1.6992725818009116E-27
(PID.TID 0000.0001) %MON trcstat_ptracer73_mean       =   2.6788223074902898E-05
(PID.TID 0000.0001) %MON trcstat_ptracer73_sd         =   1.4060546690683012E-04
(PID.TID 0000.0001) %MON trcstat_ptracer73_del2       =   0.0000000000000000E+00
(PID.TID 0000.0001) %MON trcstat_ptracer74_max        =   8.8113545729377849E-04
(PID.TID 0000.0001) %MON trcstat_ptracer74_min        =   1.6992725818009116E-27
(PID.TID 0000.0001) %MON trcstat_ptracer74_mean       =   2.6319879199974397E-05
(PID.TID 0000.0001) %MON trcstat_ptracer74_sd         =   1.3784097695755546E-04
(PID.TID 0000.0001) %MON trcstat_ptracer74_del2       =   0.0000000000000000E+00
(PID.TID 0000.0001) %MON trcstat_ptracer75_max        =   8.6691171288828198E-04
(PID.TID 0000.0001) %MON trcstat_ptracer75_min        =   1.3739850072273390E-35
(PID.TID 0000.0001) %MON trcstat_ptracer75_mean       =   2.5849548560085285E-05
(PID.TID 0000.0001) %MON trcstat_ptracer75_sd         =   1.3552172203865821E-04
(PID.TID 0000.0001) %MON trcstat_ptracer75_del2       =   0.0000000000000000E+00
(PID.TID 0000.0001) %MON trcstat_ptracer76_max        =   8.8914167013654313E-04
(PID.TID 0000.0001) %MON trcstat_ptracer76_min        =   1.3739850072273390E-35
(PID.TID 0000.0001) %MON trcstat_ptracer76_mean       =   2.6454656610775220E-05
(PID.TID 0000.0001) %MON trcstat_ptracer76_sd         =   1.3894555825691489E-04
(PID.TID 0000.0001) %MON trcstat_ptracer76_del2       =   0.0000000000000000E+00
(PID.TID 0000.0001) %MON trcstat_ptracer77_max        =   8.6691171288845556E-04
(PID.TID 0000.0001) %MON trcstat_ptracer77_min        =   1.3739850072273390E-35
(PID.TID 0000.0001) %MON trcstat_ptracer77_mean       =   2.5849548560090357E-05
(PID.TID 0000.0001) %MON trcstat_ptracer77_sd         =   1.3552172203868526E-04
(PID.TID 0000.0001) %MON trcstat_ptracer77_del2       =   0.0000000000000000E+00
(PID.TID 0000.0001) %MON trcstat_ptracer78_max        =   8.6683865037656097E-04
(PID.TID 0000.0001) %MON trcstat_ptracer78_min        =   1.6992725818009116E-27
(PID.TID 0000.0001) %MON trcstat_ptracer78_mean       =   2.5849548560084157E-05
(PID.TID 0000.0001) %MON trcstat_ptracer78_sd         =   1.3545288043729926E-04
(PID.TID 0000.0001) %MON trcstat_ptracer78_del2       =   0.0000000000000000E+00
(PID.TID 0000.0001) %MON trcstat_ptracer79_max        =   8.6683865064482273E-04
(PID.TID 0000.0001) %MON trcstat_ptracer79_min        =   1.6992725818009486E-27
(PID.TID 0000.0001) %MON trcstat_ptracer79_mean       =   2.5849548567579541E-05
(PID.TID 0000.0001) %MON trcstat_ptracer79_sd         =   1.3545288047764573E-04
(PID.TID 0000.0001) %MON trcstat_ptracer79_del2       =   0.0000000000000000E+00
(PID.TID 0000.0001) %MON trcstat_ptracer80_max        =   8.6691171288764859E-04
(PID.TID 0000.0001) %MON trcstat_ptracer80_min        =   1.3739850072273390E-35
(PID.TID 0000.0001) %MON trcstat_ptracer80_mean       =   2.5853877149724329E-05
(PID.TID 0000.0001) %MON trcstat_ptracer80_sd         =   1.3552678918927631E-04
(PID.TID 0000.0001) %MON trcstat_ptracer80_del2       =   0.0000000000000000E+00
(PID.TID 0000.0001) %MON trcstat_ptracer81_max        =   8.6691171288784136E-04
(PID.TID 0000.0001) %MON trcstat_ptracer81_min        =   1.3739850072273390E-35
(PID.TID 0000.0001) %MON trcstat_ptracer81_mean       =   2.5849548560073077E-05
(PID.TID 0000.0001) %MON trcstat_ptracer81_sd         =   1.3552172203860213E-04
(PID.TID 0000.0001) %MON trcstat_ptracer81_del2       =   0.0000000000000000E+00
(PID.TID 0000.0001) %MON trcstat_ptracer82_max        =   8.6691171288816912E-04
(PID.TID 0000.0001) %MON trcstat_ptracer82_min        =   1.3739850072273390E-35
(PID.TID 0000.0001) %MON trcstat_ptracer82_mean       =   2.5849548560081978E-05
(PID.TID 0000.0001) %MON trcstat_ptracer82_sd         =   1.3552172203864057E-04
(PID.TID 0000.0001) %MON trcstat_ptracer82_del2       =   0.0000000000000000E+00
(PID.TID 0000.0001) %MON trcstat_ptracer83_max        =   8.6683865037612317E-04
(PID.TID 0000.0001) %MON trcstat_ptracer83_min        =   1.6992725818009116E-27
(PID.TID 0000.0001) %MON trcstat_ptracer83_mean       =   2.5849548560071170E-05
(PID.TID 0000.0001) %MON trcstat_ptracer83_sd         =   1.3545288043723117E-04
(PID.TID 0000.0001) %MON trcstat_ptracer83_del2       =   0.0000000000000000E+00
(PID.TID 0000.0001) %MON trcstat_ptracer84_max        =   8.6683865093025163E-04
(PID.TID 0000.0001) %MON trcstat_ptracer84_min        =   1.6992725818009486E-27
(PID.TID 0000.0001) %MON trcstat_ptracer84_mean       =   2.5909873105580414E-05
(PID.TID 0000.0001) %MON trcstat_ptracer84_sd         =   1.3564890954164777E-04
(PID.TID 0000.0001) %MON trcstat_ptracer84_del2       =   0.0000000000000000E+00
(PID.TID 0000.0001) %MON trcstat_ptracer85_max        =   8.6683865037635085E-04
(PID.TID 0000.0001) %MON trcstat_ptracer85_min        =   1.6992725818009116E-27
(PID.TID 0000.0001) %MON trcstat_ptracer85_mean       =   2.5849757213871740E-05
(PID.TID 0000.0001) %MON trcstat_ptracer85_sd         =   1.3545285359068163E-04
(PID.TID 0000.0001) %MON trcstat_ptracer85_del2       =   0.0000000000000000E+00
(PID.TID 0000.0001) %MON trcstat_ptracer86_max        =   8.6683865037606646E-04
(PID.TID 0000.0001) %MON trcstat_ptracer86_min        =   1.6992725818009116E-27
(PID.TID 0000.0001) %MON trcstat_ptracer86_mean       =   2.5849548560069462E-05
(PID.TID 0000.0001) %MON trcstat_ptracer86_sd         =   1.3545288043722228E-04
(PID.TID 0000.0001) %MON trcstat_ptracer86_del2       =   0.0000000000000000E+00
(PID.TID 0000.0001) %MON trcstat_ptracer87_max        =   8.8396348883248033E-04
(PID.TID 0000.0001) %MON trcstat_ptracer87_min        =   1.6992725818009486E-27
(PID.TID 0000.0001) %MON trcstat_ptracer87_mean       =   2.6348324963344143E-05
(PID.TID 0000.0001) %MON trcstat_ptracer87_sd         =   1.3809533194976300E-04
(PID.TID 0000.0001) %MON trcstat_ptracer87_del2       =   0.0000000000000000E+00
(PID.TID 0000.0001) %MON trcstat_ptracer88_max        =   8.9178898742730227E-04
(PID.TID 0000.0001) %MON trcstat_ptracer88_min        =   1.3739850072273390E-35
(PID.TID 0000.0001) %MON trcstat_ptracer88_mean       =   2.6499284336720186E-05
(PID.TID 0000.0001) %MON trcstat_ptracer88_sd         =   1.3911093743508590E-04
(PID.TID 0000.0001) %MON trcstat_ptracer88_del2       =   0.0000000000000000E+00
(PID.TID 0000.0001) %MON trcstat_ptracer89_max        =   8.6691171288783247E-04
(PID.TID 0000.0001) %MON trcstat_ptracer89_min        =   1.3739850072273390E-35
(PID.TID 0000.0001) %MON trcstat_ptracer89_mean       =   2.5849548560072803E-05
(PID.TID 0000.0001) %MON trcstat_ptracer89_sd         =   1.3552172203860069E-04
(PID.TID 0000.0001) %MON trcstat_ptracer89_del2       =   0.0000000000000000E+00
(PID.TID 0000.0001) %MON trcstat_ptracer90_max        =   8.6683865037612241E-04
(PID.TID 0000.0001) %MON trcstat_ptracer90_min        =   1.6992725818009116E-27
(PID.TID 0000.0001) %MON trcstat_ptracer90_mean       =   2.5850046027428005E-05
(PID.TID 0000.0001) %MON trcstat_ptracer90_sd         =   1.3545284211668570E-04
(PID.TID 0000.0001) %MON trcstat_ptracer90_del2       =   0.0000000000000000E+00
(PID.TID 0000.0001) %MON trcstat_ptracer91_max        =   8.6691171288768437E-04
(PID.TID 0000.0001) %MON trcstat_ptracer91_min        =   1.3739850072273390E-35
(PID.TID 0000.0001) %MON trcstat_ptracer91_mean       =   2.5849750667596879E-05
(PID.TID 0000.0001) %MON trcstat_ptracer91_sd         =   1.3552170216476453E-04
(PID.TID 0000.0001) %MON trcstat_ptracer91_del2       =   0.0000000000000000E+00
(PID.TID 0000.0001) %MON trcstat_ptracer92_max        =   8.8836686454005329E-04
(PID.TID 0000.0001) %MON trcstat_ptracer92_min        =   1.3739850072273390E-35
(PID.TID 0000.0001) %MON trcstat_ptracer92_mean       =   2.6478554424280858E-05
(PID.TID 0000.0001) %MON trcstat_ptracer92_sd         =   1.3897868320953541E-04
(PID.TID 0000.0001) %MON trcstat_ptracer92_del2       =   0.0000000000000000E+00
(PID.TID 0000.0001) %MON trcstat_ptracer93_max        =   8.6691171288765868E-04
(PID.TID 0000.0001) %MON trcstat_ptracer93_min        =   1.3739850072273390E-35
(PID.TID 0000.0001) %MON trcstat_ptracer93_mean       =   2.5856389303390595E-05
(PID.TID 0000.0001) %MON trcstat_ptracer93_sd         =   1.3553152663388335E-04
(PID.TID 0000.0001) %MON trcstat_ptracer93_del2       =   0.0000000000000000E+00
(PID.TID 0000.0001) %MON trcstat_ptracer94_max        =   8.8826095819991718E-04
(PID.TID 0000.0001) %MON trcstat_ptracer94_min        =   1.3739850072273390E-35
(PID.TID 0000.0001) %MON trcstat_ptracer94_mean       =   2.6439702757181755E-05
(PID.TID 0000.0001) %MON trcstat_ptracer94_sd         =   1.3885906629150025E-04
(PID.TID 0000.0001) %MON trcstat_ptracer94_del2       =   0.0000000000000000E+00
(PID.TID 0000.0001) %MON trcstat_ptracer95_max        =   8.6691171288831646E-04
(PID.TID 0000.0001) %MON trcstat_ptracer95_min        =   1.3739850072273390E-35
(PID.TID 0000.0001) %MON trcstat_ptracer95_mean       =   2.5849548560086298E-05
(PID.TID 0000.0001) %MON trcstat_ptracer95_sd         =   1.3552172203866361E-04
(PID.TID 0000.0001) %MON trcstat_ptracer95_del2       =   0.0000000000000000E+00
(PID.TID 0000.0001) %MON trcstat_ptracer96_max        =   1.2365510737858312E-07
(PID.TID 0000.0001) %MON trcstat_ptracer96_min        =   9.6539308657162788E-34
(PID.TID 0000.0001) %MON trcstat_ptracer96_mean       =   1.6351709964061080E-08
(PID.TID 0000.0001) %MON trcstat_ptracer96_sd         =   2.9908640085060317E-08
(PID.TID 0000.0001) %MON trcstat_ptracer96_del2       =   0.0000000000000000E+00
(PID.TID 0000.0001) %MON trcstat_ptracer97_max        =   1.2365445809435886E-07
(PID.TID 0000.0001) %MON trcstat_ptracer97_min        =   9.6539308657033828E-34
(PID.TID 0000.0001) %MON trcstat_ptracer97_mean       =   1.6351691382633036E-08
(PID.TID 0000.0001) %MON trcstat_ptracer97_sd         =   2.9908577741114515E-08
(PID.TID 0000.0001) %MON trcstat_ptracer97_del2       =   0.0000000000000000E+00
