(PID.TID 0000.0001) 
(PID.TID 0000.0001) // ======================================================
(PID.TID 0000.0001) //                      MITgcm UV
(PID.TID 0000.0001) //                      =========
(PID.TID 0000.0001) // ======================================================
(PID.TID 0000.0001) // execution environment starting up...
(PID.TID 0000.0001) 
(PID.TID 0000.0001) // MITgcmUV version:  checkpoint65u
(PID.TID 0000.0001) // Build user:        jahn
(PID.TID 0000.0001) // Build host:        node201
(PID.TID 0000.0001) // Build date:        Fri Apr  1 12:24:52 EDT 2016
(PID.TID 0000.0001) 
(PID.TID 0000.0001) // =======================================================
(PID.TID 0000.0001) // Execution Environment parameter file "eedata"
(PID.TID 0000.0001) // =======================================================
(PID.TID 0000.0001) ># Example "eedata" file
(PID.TID 0000.0001) ># Lines beginning "#" are comments
(PID.TID 0000.0001) ># nTx - No. threads per process in X
(PID.TID 0000.0001) ># nTy - No. threads per process in Y
(PID.TID 0000.0001) > &EEPARMS
(PID.TID 0000.0001) > nTx=1,nTy=1
(PID.TID 0000.0001) > /
(PID.TID 0000.0001) ># Note: Some systems use & as the
(PID.TID 0000.0001) ># namelist terminator. Other systems
(PID.TID 0000.0001) ># use a / character (as shown here).
(PID.TID 0000.0001) 
(PID.TID 0000.0001) // =======================================================
(PID.TID 0000.0001) // Computational Grid Specification ( see files "SIZE.h" )
(PID.TID 0000.0001) //                                  ( and "eedata"       )
(PID.TID 0000.0001) // =======================================================
(PID.TID 0000.0001)      nPx =    1 ; /* No. processes in X */
(PID.TID 0000.0001)      nPy =    1 ; /* No. processes in Y */
(PID.TID 0000.0001)      nSx =    1 ; /* No. tiles in X per process */
(PID.TID 0000.0001)      nSy =    1 ; /* No. tiles in Y per process */
(PID.TID 0000.0001)      sNx =    1 ; /* Tile size in X */
(PID.TID 0000.0001)      sNy =    1 ; /* Tile size in Y */
(PID.TID 0000.0001)      OLx =    2 ; /* Tile overlap distance in X */
(PID.TID 0000.0001)      OLy =    2 ; /* Tile overlap distance in Y */
(PID.TID 0000.0001)      nTx =    1 ; /* No. threads in X per process */
(PID.TID 0000.0001)      nTy =    1 ; /* No. threads in Y per process */
(PID.TID 0000.0001)       Nr =   35 ; /* No. levels in the vertical   */
(PID.TID 0000.0001)       Nx =    1 ; /* Total domain size in X ( = nPx*nSx*sNx ) */
(PID.TID 0000.0001)       Ny =    1 ; /* Total domain size in Y ( = nPy*nSy*sNy ) */
(PID.TID 0000.0001)   nTiles =    1 ; /* Total no. tiles per process ( = nSx*nSy ) */
(PID.TID 0000.0001)   nProcs =    1 ; /* Total no. processes ( = nPx*nPy ) */
(PID.TID 0000.0001) nThreads =    1 ; /* Total no. threads per process ( = nTx*nTy ) */
(PID.TID 0000.0001) usingMPI =    F ; /* Flag used to control whether MPI is in use */
(PID.TID 0000.0001)                   /*  note: To execute a program with MPI calls */
(PID.TID 0000.0001)                   /*  it must be launched appropriately e.g     */
(PID.TID 0000.0001)                   /*  "mpirun -np 64 ......"                    */
(PID.TID 0000.0001) useCoupler=    F ;/* Flag used to control communications with   */
(PID.TID 0000.0001)                   /*  other model components, through a coupler */
(PID.TID 0000.0001) debugMode =    F ; /* print debug msg. (sequence of S/R calls)  */
(PID.TID 0000.0001) printMapIncludesZeros=    F ; /* print zeros in Std.Output maps */
(PID.TID 0000.0001) maxLengthPrt1D=   65 /* maxLength of 1D array printed to StdOut */
(PID.TID 0000.0001) 
(PID.TID 0000.0001) // ======================================================
(PID.TID 0000.0001) // Mapping of tiles to threads
(PID.TID 0000.0001) // ======================================================
(PID.TID 0000.0001) // -o- Thread   1, tiles (   1:   1,   1:   1)
(PID.TID 0000.0001) 
(PID.TID 0000.0001) // ======================================================
(PID.TID 0000.0001) // Tile <-> Tile connectvity table
(PID.TID 0000.0001) // ======================================================
(PID.TID 0000.0001) // Tile number: 000001 (process no. = 000000)
(PID.TID 0000.0001) //        WEST: Tile = 000001, Process = 000000, Comm = put
(PID.TID 0000.0001) //                bi = 000001, bj = 000001
(PID.TID 0000.0001) //        EAST: Tile = 000001, Process = 000000, Comm = put
(PID.TID 0000.0001) //                bi = 000001, bj = 000001
(PID.TID 0000.0001) //       SOUTH: Tile = 000001, Process = 000000, Comm = put
(PID.TID 0000.0001) //                bi = 000001, bj = 000001
(PID.TID 0000.0001) //       NORTH: Tile = 000001, Process = 000000, Comm = put
(PID.TID 0000.0001) //                bi = 000001, bj = 000001
(PID.TID 0000.0001) 
(PID.TID 0000.0001)  INI_PARMS: opening model parameter file "data"
(PID.TID 0000.0001)  OPEN_COPY_DATA_FILE: opening file data
(PID.TID 0000.0001) // =======================================================
(PID.TID 0000.0001) // Removing comments from "data"
(PID.TID 0000.0001) // =======================================================
(PID.TID 0000.0001)    1 &PARM01
(PID.TID 0000.0001)    2 tRef= 26.5, 26.1, 26., 25.5, 25.4, 24.9, 24.5, 24.0, 23.7,
(PID.TID 0000.0001)    3       23.3, 23.1, 22.8, 22.5, 22.1, 21.6, 20.6, 19.5, 18.4,
(PID.TID 0000.0001)    4       17.3, 16.6, 15.5, 14.6, 13.8, 13.1, 11.6, 10.1, 7.7,
(PID.TID 0000.0001)    5       5.3, 4.1, 3.7, 3.7, 3.4, 3.0, 2.8, 2.6,
(PID.TID 0000.0001)    6 sRef= 35*35.00,
(PID.TID 0000.0001)    7 no_slip_sides=.false.,
(PID.TID 0000.0001)    8 no_slip_bottom=.TRUE.,
(PID.TID 0000.0001)    9 viscAz=0.e0,
(PID.TID 0000.0001)   10 viscAh=0.e0,
(PID.TID 0000.0001)   11 diffKhT=1.E2,
(PID.TID 0000.0001)   12 diffKzT=1.E-4,
(PID.TID 0000.0001)   13 diffKhS=0.D0,
(PID.TID 0000.0001)   14 diffKzS=0.D0,
(PID.TID 0000.0001)   15 beta=1.E-11,
(PID.TID 0000.0001)   16 tAlpha=2.E-4,
(PID.TID 0000.0001)   17 sBeta =7.4E-4,
(PID.TID 0000.0001)   18 gravity=9.81,
(PID.TID 0000.0001)   19 gBaro=9.81,
(PID.TID 0000.0001)   20 rigidLid=.TRUE.,
(PID.TID 0000.0001)   21 implicitFreeSurface=.false.,
(PID.TID 0000.0001)   22 eosType='JMD95Z',
(PID.TID 0000.0001)   23 saltStepping=.FALSE.,
(PID.TID 0000.0001)   24 tempStepping=.TRUE.,
(PID.TID 0000.0001)   25 tempAdvection=.TRUE.,
(PID.TID 0000.0001)   26 momStepping=.FALSE.,
(PID.TID 0000.0001)   27 implicitDiffusion=.true.,
(PID.TID 0000.0001)   28 implicitViscosity=.false.,
(PID.TID 0000.0001)   29 allowFreezing=.false.,
(PID.TID 0000.0001)   30 useSingleCpuIO=.TRUE.,
(PID.TID 0000.0001)   31 useCDscheme=.FALSE.,
(PID.TID 0000.0001)   32 tempAdvScheme = 3,
(PID.TID 0000.0001)   33 saltAdvScheme = 3,
(PID.TID 0000.0001)   34 writeBinaryPrec= 64,
(PID.TID 0000.0001)   35 /
(PID.TID 0000.0001)   36
(PID.TID 0000.0001)   37 &PARM02
(PID.TID 0000.0001)   38 cg2dMaxIters=300,
(PID.TID 0000.0001)   39 cg2dTargetResidual=1.E-7,
(PID.TID 0000.0001)   40 /
(PID.TID 0000.0001)   41
(PID.TID 0000.0001)   42 &PARM03
(PID.TID 0000.0001)   43  nIter0=0,
(PID.TID 0000.0001)   44  nTimeSteps=4,
(PID.TID 0000.0001)   45  deltaTmom= 3600.,
(PID.TID 0000.0001)   46  deltaTtracer= 3600.,
(PID.TID 0000.0001)   47  deltaTClock = 3600.,
(PID.TID 0000.0001)   48  cAdjFreq    = -1.,
(PID.TID 0000.0001)   49  abEps=0.1,
(PID.TID 0000.0001)   50  pChkptFreq  = 31104000.0,
(PID.TID 0000.0001)   51  chkptFreq   = 31104000.0,
(PID.TID 0000.0001)   52  dumpFreq = 3600.,
(PID.TID 0000.0001)   53  dumpInitAndLast = .TRUE.,
(PID.TID 0000.0001)   54  taveFreq    = 2592000.,
(PID.TID 0000.0001)   55  monitorFreq = 1.,
(PID.TID 0000.0001)   56  tauThetaClimRelax=259200.,
(PID.TID 0000.0001)   57  tauSaltClimRelax=0.,
(PID.TID 0000.0001)   58  periodicExternalForcing=.TRUE.,
(PID.TID 0000.0001)   59  externForcingPeriod=2592000.,
(PID.TID 0000.0001)   60  externForcingCycle=31104000.,
(PID.TID 0000.0001)   61 /
(PID.TID 0000.0001)   62
(PID.TID 0000.0001)   63 &PARM04
(PID.TID 0000.0001)   64 usingCartesianGrid=.FALSE.,
(PID.TID 0000.0001)   65 usingSphericalPolarGrid=.TRUE.,
(PID.TID 0000.0001)   66 delX=1*1.E0,
(PID.TID 0000.0001)   67 delY=1*1.E0,
(PID.TID 0000.0001)   68 delZ=14*10, 5*15, 4*20, 2*50, 100, 2*150, 200, 300, 3*400, 2*500,
(PID.TID 0000.0001)   69 xgOrigin=335,
(PID.TID 0000.0001)   70 ygOrigin=-18.,
(PID.TID 0000.0001)   71 /
(PID.TID 0000.0001)   72
(PID.TID 0000.0001)   73 &PARM05
(PID.TID 0000.0001)   74 bathyFile=       '../input/input/bathyneg.bin',
(PID.TID 0000.0001)   75 hydrogThetaFile= '../input/input/loc1_temp_janprof.bin',
(PID.TID 0000.0001)   76 hydrogSaltFile=  '../input/input/salt_uniform.bin',
(PID.TID 0000.0001)   77 zonalWindFile=   '',
(PID.TID 0000.0001)   78 meridWindFile=   '',
(PID.TID 0000.0001)   79 thetaClimFile=   '../input/input/loc1_temp_monsurf.bin',
(PID.TID 0000.0001)   80 saltClimFile=    '',
(PID.TID 0000.0001)   81 surfQFile=       '',
(PID.TID 0000.0001)   82 EmPmRFile=       '',
(PID.TID 0000.0001)   83 /
(PID.TID 0000.0001) // =======================================================
(PID.TID 0000.0001) // Parameter file "data"
(PID.TID 0000.0001) // =======================================================
(PID.TID 0000.0001) >#
(PID.TID 0000.0001) ># ******************************
(PID.TID 0000.0001) ># Model parameters
(PID.TID 0000.0001) ># Continuous equation parameters
(PID.TID 0000.0001) ># ******************************
(PID.TID 0000.0001) >&PARM01
(PID.TID 0000.0001) >tRef= 26.5, 26.1, 26., 25.5, 25.4, 24.9, 24.5, 24.0, 23.7,
(PID.TID 0000.0001) >      23.3, 23.1, 22.8, 22.5, 22.1, 21.6, 20.6, 19.5, 18.4,
(PID.TID 0000.0001) >      17.3, 16.6, 15.5, 14.6, 13.8, 13.1, 11.6, 10.1, 7.7,
(PID.TID 0000.0001) >      5.3, 4.1, 3.7, 3.7, 3.4, 3.0, 2.8, 2.6,
(PID.TID 0000.0001) >sRef= 35*35.00,
(PID.TID 0000.0001) >no_slip_sides=.false.,
(PID.TID 0000.0001) >no_slip_bottom=.TRUE.,
(PID.TID 0000.0001) >viscAz=0.e0,
(PID.TID 0000.0001) >viscAh=0.e0,
(PID.TID 0000.0001) >diffKhT=1.E2,
(PID.TID 0000.0001) >diffKzT=1.E-4,
(PID.TID 0000.0001) >diffKhS=0.D0,
(PID.TID 0000.0001) >diffKzS=0.D0,
(PID.TID 0000.0001) >beta=1.E-11,
(PID.TID 0000.0001) >tAlpha=2.E-4,
(PID.TID 0000.0001) >sBeta =7.4E-4,
(PID.TID 0000.0001) >gravity=9.81,
(PID.TID 0000.0001) >gBaro=9.81,
(PID.TID 0000.0001) >rigidLid=.TRUE.,
(PID.TID 0000.0001) >implicitFreeSurface=.false.,
(PID.TID 0000.0001) >eosType='JMD95Z',
(PID.TID 0000.0001) >saltStepping=.FALSE.,
(PID.TID 0000.0001) >tempStepping=.TRUE.,
(PID.TID 0000.0001) >tempAdvection=.TRUE.,
(PID.TID 0000.0001) >momStepping=.FALSE.,
(PID.TID 0000.0001) >implicitDiffusion=.true.,
(PID.TID 0000.0001) >implicitViscosity=.false.,
(PID.TID 0000.0001) >allowFreezing=.false.,
(PID.TID 0000.0001) >useSingleCpuIO=.TRUE.,
(PID.TID 0000.0001) >useCDscheme=.FALSE.,
(PID.TID 0000.0001) >tempAdvScheme = 3,
(PID.TID 0000.0001) >saltAdvScheme = 3,
(PID.TID 0000.0001) >writeBinaryPrec= 64,
(PID.TID 0000.0001) >/
(PID.TID 0000.0001) >
(PID.TID 0000.0001) ># **************************
(PID.TID 0000.0001) ># Elliptic solver parameters
(PID.TID 0000.0001) ># **************************
(PID.TID 0000.0001) >&PARM02
(PID.TID 0000.0001) >cg2dMaxIters=300,
(PID.TID 0000.0001) >cg2dTargetResidual=1.E-7,
(PID.TID 0000.0001) >/
(PID.TID 0000.0001) >
(PID.TID 0000.0001) ># ************************
(PID.TID 0000.0001) ># Time stepping parameters
(PID.TID 0000.0001) ># ************************
(PID.TID 0000.0001) >&PARM03
(PID.TID 0000.0001) > nIter0=0,
(PID.TID 0000.0001) >#nTimeSteps=86400,
(PID.TID 0000.0001) > nTimeSteps=4,
(PID.TID 0000.0001) > deltaTmom= 3600.,
(PID.TID 0000.0001) > deltaTtracer= 3600.,
(PID.TID 0000.0001) > deltaTClock = 3600.,
(PID.TID 0000.0001) > cAdjFreq    = -1.,
(PID.TID 0000.0001) > abEps=0.1,
(PID.TID 0000.0001) > pChkptFreq  = 31104000.0,
(PID.TID 0000.0001) > chkptFreq   = 31104000.0,
(PID.TID 0000.0001) > dumpFreq = 3600.,
(PID.TID 0000.0001) > dumpInitAndLast = .TRUE.,
(PID.TID 0000.0001) > taveFreq    = 2592000.,
(PID.TID 0000.0001) >#monitorFreq = 2592000.,
(PID.TID 0000.0001) > monitorFreq = 1.,
(PID.TID 0000.0001) > tauThetaClimRelax=259200.,
(PID.TID 0000.0001) > tauSaltClimRelax=0.,
(PID.TID 0000.0001) > periodicExternalForcing=.TRUE.,
(PID.TID 0000.0001) > externForcingPeriod=2592000.,
(PID.TID 0000.0001) > externForcingCycle=31104000.,
(PID.TID 0000.0001) >/
(PID.TID 0000.0001) >
(PID.TID 0000.0001) ># *******************
(PID.TID 0000.0001) ># Gridding parameters
(PID.TID 0000.0001) ># *******************
(PID.TID 0000.0001) >&PARM04
(PID.TID 0000.0001) >usingCartesianGrid=.FALSE.,
(PID.TID 0000.0001) >usingSphericalPolarGrid=.TRUE.,
(PID.TID 0000.0001) >delX=1*1.E0,
(PID.TID 0000.0001) >delY=1*1.E0,
(PID.TID 0000.0001) >delZ=14*10, 5*15, 4*20, 2*50, 100, 2*150, 200, 300, 3*400, 2*500,
(PID.TID 0000.0001) >xgOrigin=335,
(PID.TID 0000.0001) >ygOrigin=-18.,
(PID.TID 0000.0001) >/
(PID.TID 0000.0001) >
(PID.TID 0000.0001) ># **********
(PID.TID 0000.0001) ># Data Files
(PID.TID 0000.0001) ># **********
(PID.TID 0000.0001) >&PARM05
(PID.TID 0000.0001) >bathyFile=       '../input/input/bathyneg.bin',
(PID.TID 0000.0001) >hydrogThetaFile= '../input/input/loc1_temp_janprof.bin',
(PID.TID 0000.0001) >hydrogSaltFile=  '../input/input/salt_uniform.bin',
(PID.TID 0000.0001) >zonalWindFile=   '',
(PID.TID 0000.0001) >meridWindFile=   '',
(PID.TID 0000.0001) >thetaClimFile=   '../input/input/loc1_temp_monsurf.bin',
(PID.TID 0000.0001) >saltClimFile=    '',
(PID.TID 0000.0001) >surfQFile=       '',
(PID.TID 0000.0001) >EmPmRFile=       '',
(PID.TID 0000.0001) >/
(PID.TID 0000.0001) 
(PID.TID 0000.0001)  INI_PARMS ; starts to read PARM01
(PID.TID 0000.0001)  INI_PARMS ; read PARM01 : OK
(PID.TID 0000.0001)  INI_PARMS ; starts to read PARM02
(PID.TID 0000.0001)  INI_PARMS ; read PARM02 : OK
(PID.TID 0000.0001)  INI_PARMS ; starts to read PARM03
(PID.TID 0000.0001)  INI_PARMS ; read PARM03 : OK
(PID.TID 0000.0001)  INI_PARMS ; starts to read PARM04
(PID.TID 0000.0001)  INI_PARMS ; read PARM04 : OK
(PID.TID 0000.0001)  INI_PARMS ; starts to read PARM05
(PID.TID 0000.0001)  INI_PARMS ; read PARM05 : OK
(PID.TID 0000.0001)  INI_PARMS: finished reading file "data"
(PID.TID 0000.0001)  PACKAGES_BOOT: opening data.pkg
(PID.TID 0000.0001)  OPEN_COPY_DATA_FILE: opening file data.pkg
(PID.TID 0000.0001) // =======================================================
(PID.TID 0000.0001) // Removing comments from "data.pkg"
(PID.TID 0000.0001) // =======================================================
(PID.TID 0000.0001)    1  &PACKAGES
(PID.TID 0000.0001)    2  usePTRACERS=.TRUE.
(PID.TID 0000.0001)    3  useGCHEM=.TRUE.,
(PID.TID 0000.0001)    4  useEXF=.TRUE.
(PID.TID 0000.0001)    5  useCAL=.TRUE.
(PID.TID 0000.0001)    6  useKPP=.FALSE.,
(PID.TID 0000.0001)    7  useMNC=.TRUE.,
(PID.TID 0000.0001)    8  useDIAGNOSTICS=.TRUE.,
(PID.TID 0000.0001)    9  /
(PID.TID 0000.0001) // =======================================================
(PID.TID 0000.0001) // Parameter file "data.pkg"
(PID.TID 0000.0001) // =======================================================
(PID.TID 0000.0001) ># Packages
(PID.TID 0000.0001) > &PACKAGES
(PID.TID 0000.0001) > usePTRACERS=.TRUE.
(PID.TID 0000.0001) > useGCHEM=.TRUE.,
(PID.TID 0000.0001) > useEXF=.TRUE.
(PID.TID 0000.0001) > useCAL=.TRUE.
(PID.TID 0000.0001) > useKPP=.FALSE.,
(PID.TID 0000.0001) > useMNC=.TRUE.,
(PID.TID 0000.0001) > useDIAGNOSTICS=.TRUE.,
(PID.TID 0000.0001) > /
(PID.TID 0000.0001) 
(PID.TID 0000.0001)  PACKAGES_BOOT: finished reading data.pkg
(PID.TID 0000.0001)  PACKAGES_BOOT: On/Off package Summary
 --------  pkgs with a standard "usePKG" On/Off switch in "data.pkg":  --------
 pkg/kpp                  compiled but not used ( useKPP                   = F )
 pkg/cal                  compiled   and   used ( useCAL                   = T )
 pkg/exf                  compiled   and   used ( useEXF                   = T )
 pkg/sbo                  compiled but not used ( useSBO                   = F )
 pkg/ptracers             compiled   and   used ( usePTRACERS              = T )
 pkg/gchem                compiled   and   used ( useGCHEM                 = T )
 pkg/diagnostics          compiled   and   used ( useDiagnostics           = T )
 pkg/mnc                  compiled   and   used ( useMNC                   = T )
 -------- pkgs without standard "usePKG" On/Off switch in "data.pkg":  --------
 pkg/generic_advdiff      compiled   and   used ( useGAD                   = T )
 pkg/monitor              compiled   and   used ( monitorFreq > 0.         = T )
 pkg/timeave              compiled   and   used ( taveFreq > 0.            = T )
 pkg/rw                   compiled   and   used
 pkg/mdsio                compiled   and   used
(PID.TID 0000.0001)  PACKAGES_BOOT: End of package Summary
(PID.TID 0000.0001) 
(PID.TID 0000.0001)  MNC_READPARMS: opening file 'data.mnc'
(PID.TID 0000.0001)  OPEN_COPY_DATA_FILE: opening file data.mnc
(PID.TID 0000.0001) // =======================================================
(PID.TID 0000.0001) // Removing comments from "data.mnc"
(PID.TID 0000.0001) // =======================================================
(PID.TID 0000.0001)    1  &MNC_01
(PID.TID 0000.0001)    2  mnc_use_outdir=.TRUE.,
(PID.TID 0000.0001)    3  mnc_outdir_str='dar1d_',
(PID.TID 0000.0001)    4  mnc_outdir_date=.TRUE.,
(PID.TID 0000.0001)    5  monitor_mnc=.FALSE.,
(PID.TID 0000.0001)    6  snapshot_mnc=.TRUE.,
(PID.TID 0000.0001)    7  timeave_mnc=.TRUE.,
(PID.TID 0000.0001)    8  pickup_read_mnc=.FALSE.,
(PID.TID 0000.0001)    9  pickup_write_mnc=.FALSE.,
(PID.TID 0000.0001)   10  /
(PID.TID 0000.0001) // =======================================================
(PID.TID 0000.0001) // Parameter file "data.mnc"
(PID.TID 0000.0001) // =======================================================
(PID.TID 0000.0001) ># Example "data.mnc" file
(PID.TID 0000.0001) ># Lines beginning "#" are comments
(PID.TID 0000.0001) > &MNC_01
(PID.TID 0000.0001) ># mnc_echo_gvtypes=.FALSE.,
(PID.TID 0000.0001) ># mnc_use_indir=.FALSE.,
(PID.TID 0000.0001) > mnc_use_outdir=.TRUE.,
(PID.TID 0000.0001) > mnc_outdir_str='dar1d_',
(PID.TID 0000.0001) > mnc_outdir_date=.TRUE.,
(PID.TID 0000.0001) > monitor_mnc=.FALSE.,
(PID.TID 0000.0001) > snapshot_mnc=.TRUE.,
(PID.TID 0000.0001) > timeave_mnc=.TRUE.,
(PID.TID 0000.0001) > pickup_read_mnc=.FALSE.,
(PID.TID 0000.0001) > pickup_write_mnc=.FALSE.,
(PID.TID 0000.0001) > /
(PID.TID 0000.0001) ># Note: Some systems use & as the
(PID.TID 0000.0001) ># namelist terminator. Other systems
(PID.TID 0000.0001) ># use a / character.
(PID.TID 0000.0001) 
(PID.TID 0000.0001)  MNC_READPARMS: finished reading data.mnc
(PID.TID 0000.0001) CAL_READPARMS: opening data.cal
(PID.TID 0000.0001)  OPEN_COPY_DATA_FILE: opening file data.cal
(PID.TID 0000.0001) // =======================================================
(PID.TID 0000.0001) // Removing comments from "data.cal"
(PID.TID 0000.0001) // =======================================================
(PID.TID 0000.0001)    1  &CAL_NML
(PID.TID 0000.0001)    2  TheCalendar='model',
(PID.TID 0000.0001)    3  startDate_1=19920101,
(PID.TID 0000.0001)    4  startDate_2=000000,
(PID.TID 0000.0001)    5  calendarDumps = .TRUE.
(PID.TID 0000.0001)    6  /
(PID.TID 0000.0001) // =======================================================
(PID.TID 0000.0001) // Parameter file "data.cal"
(PID.TID 0000.0001) // =======================================================
(PID.TID 0000.0001) >#
(PID.TID 0000.0001) ># *******************
(PID.TID 0000.0001) ># Calendar Parameters
(PID.TID 0000.0001) ># *******************
(PID.TID 0000.0001) > &CAL_NML
(PID.TID 0000.0001) > TheCalendar='model',
(PID.TID 0000.0001) > startDate_1=19920101,
(PID.TID 0000.0001) > startDate_2=000000,
(PID.TID 0000.0001) > calendarDumps = .TRUE.
(PID.TID 0000.0001) > /
(PID.TID 0000.0001) 
(PID.TID 0000.0001) CAL_READPARMS: finished reading data.cal
(PID.TID 0000.0001) EXF_READPARMS: opening data.exf
(PID.TID 0000.0001)  OPEN_COPY_DATA_FILE: opening file data.exf
(PID.TID 0000.0001) // =======================================================
(PID.TID 0000.0001) // Removing comments from "data.exf"
(PID.TID 0000.0001) // =======================================================
(PID.TID 0000.0001)    1  &EXF_NML_01
(PID.TID 0000.0001)    2  exf_albedo        = 0.15,
(PID.TID 0000.0001)    3  exf_iprec         = 32,
(PID.TID 0000.0001)    4  exf_yftype        = 'RL',
(PID.TID 0000.0001)    5  useExfYearlyFields= .TRUE.,
(PID.TID 0000.0001)    6  twoDigitYear      = .TRUE.,
(PID.TID 0000.0001)    7  useExfCheckRange  = .FALSE.,
(PID.TID 0000.0001)    8  /
(PID.TID 0000.0001)    9  &EXF_NML_02
(PID.TID 0000.0001)   10  /
(PID.TID 0000.0001)   11  &EXF_NML_03
(PID.TID 0000.0001)   12  /
(PID.TID 0000.0001)   13  &EXF_NML_04
(PID.TID 0000.0001)   14  /
(PID.TID 0000.0001)   15  &EXF_NML_OBCS
(PID.TID 0000.0001)   16  /
(PID.TID 0000.0001) // =======================================================
(PID.TID 0000.0001) // Parameter file "data.exf"
(PID.TID 0000.0001) // =======================================================
(PID.TID 0000.0001) ># *********************
(PID.TID 0000.0001) ># External Forcing Data
(PID.TID 0000.0001) ># *********************
(PID.TID 0000.0001) >#
(PID.TID 0000.0001) > &EXF_NML_01
(PID.TID 0000.0001) > exf_albedo        = 0.15,
(PID.TID 0000.0001) > exf_iprec         = 32,
(PID.TID 0000.0001) > exf_yftype        = 'RL',
(PID.TID 0000.0001) > useExfYearlyFields= .TRUE.,
(PID.TID 0000.0001) > twoDigitYear      = .TRUE.,
(PID.TID 0000.0001) > useExfCheckRange  = .FALSE.,
(PID.TID 0000.0001) > /
(PID.TID 0000.0001) >#
(PID.TID 0000.0001) > &EXF_NML_02
(PID.TID 0000.0001) > /
(PID.TID 0000.0001) >#
(PID.TID 0000.0001) > &EXF_NML_03
(PID.TID 0000.0001) > /
(PID.TID 0000.0001) >#
(PID.TID 0000.0001) > &EXF_NML_04
(PID.TID 0000.0001) > /
(PID.TID 0000.0001) >#
(PID.TID 0000.0001) > &EXF_NML_OBCS
(PID.TID 0000.0001) > /
(PID.TID 0000.0001) 
(PID.TID 0000.0001) EXF_READPARMS: reading EXF_NML_01
(PID.TID 0000.0001) EXF_READPARMS: reading EXF_NML_02
(PID.TID 0000.0001) EXF_READPARMS: reading EXF_NML_03
(PID.TID 0000.0001) EXF_READPARMS: finished reading data.exf
(PID.TID 0000.0001)  PTRACERS_READPARMS: opening data.ptracers
(PID.TID 0000.0001)  OPEN_COPY_DATA_FILE: opening file data.ptracers
(PID.TID 0000.0001) // =======================================================
(PID.TID 0000.0001) // Removing comments from "data.ptracers"
(PID.TID 0000.0001) // =======================================================
(PID.TID 0000.0001)    1  &PTRACERS_PARM01
(PID.TID 0000.0001)    2  PTRACERS_numInUse= 98,
(PID.TID 0000.0001)    3  PTRACERS_Iter0= 0,
(PID.TID 0000.0001)    4  PTRACERS_advScheme= 98*33,
(PID.TID 0000.0001)    5  PTRACERS_diffKh=    98*0.E3,
(PID.TID 0000.0001)    6  PTRACERS_diffKr=    98*1.E-5,
(PID.TID 0000.0001)    7  PTRACERS_useGMRedi= 98*.FALSE. ,
(PID.TID 0000.0001)    8  PTRACERS_useKPP=    98*.FALSE. ,
(PID.TID 0000.0001)    9  PTRACERS_names(1)= 'DIC',
(PID.TID 0000.0001)   10  PTRACERS_names(2)= 'NH4',
(PID.TID 0000.0001)   11  PTRACERS_names(3)= 'NO2',
(PID.TID 0000.0001)   12  PTRACERS_names(4)= 'NO3',
(PID.TID 0000.0001)   13  PTRACERS_names(5)= 'PO4',
(PID.TID 0000.0001)   14  PTRACERS_names(6)= 'SiO2',
(PID.TID 0000.0001)   15  PTRACERS_names(7)= 'FeT',
(PID.TID 0000.0001)   16  PTRACERS_names(8)= 'DOC',
(PID.TID 0000.0001)   17  PTRACERS_names(9)= 'DON',
(PID.TID 0000.0001)   18  PTRACERS_names(10)= 'DOP',
(PID.TID 0000.0001)   19  PTRACERS_names(11)= 'DOFe',
(PID.TID 0000.0001)   20  PTRACERS_names(12)= 'POC',
(PID.TID 0000.0001)   21  PTRACERS_names(13)= 'PON',
(PID.TID 0000.0001)   22  PTRACERS_names(14)= 'POP',
(PID.TID 0000.0001)   23  PTRACERS_names(15)= 'POSi',
(PID.TID 0000.0001)   24  PTRACERS_names(16)= 'POFe',
(PID.TID 0000.0001)   25  PTRACERS_names(17)= 'PIC',
(PID.TID 0000.0001)   26  PTRACERS_names(18)= 'CDOM',
(PID.TID 0000.0001)   27  PTRACERS_names(19)= 'c01',
(PID.TID 0000.0001)   28  PTRACERS_names(20)= 'c02',
(PID.TID 0000.0001)   29  PTRACERS_names(21)= 'c03',
(PID.TID 0000.0001)   30  PTRACERS_names(22)= 'c04',
(PID.TID 0000.0001)   31  PTRACERS_names(23)= 'c05',
(PID.TID 0000.0001)   32  PTRACERS_names(24)= 'c06',
(PID.TID 0000.0001)   33  PTRACERS_names(25)= 'c07',
(PID.TID 0000.0001)   34  PTRACERS_names(26)= 'c08',
(PID.TID 0000.0001)   35  PTRACERS_names(27)= 'c09',
(PID.TID 0000.0001)   36  PTRACERS_names(28)= 'c10',
(PID.TID 0000.0001)   37  PTRACERS_names(29)= 'c11',
(PID.TID 0000.0001)   38  PTRACERS_names(30)= 'c12',
(PID.TID 0000.0001)   39  PTRACERS_names(31)= 'c13',
(PID.TID 0000.0001)   40  PTRACERS_names(32)= 'c14',
(PID.TID 0000.0001)   41  PTRACERS_names(33)= 'c15',
(PID.TID 0000.0001)   42  PTRACERS_names(34)= 'c16',
(PID.TID 0000.0001)   43  PTRACERS_names(35)= 'c17',
(PID.TID 0000.0001)   44  PTRACERS_names(36)= 'c18',
(PID.TID 0000.0001)   45  PTRACERS_names(37)= 'c19',
(PID.TID 0000.0001)   46  PTRACERS_names(38)= 'c20',
(PID.TID 0000.0001)   47  PTRACERS_names(39)= 'c21',
(PID.TID 0000.0001)   48  PTRACERS_names(40)= 'c22',
(PID.TID 0000.0001)   49  PTRACERS_names(41)= 'c23',
(PID.TID 0000.0001)   50  PTRACERS_names(42)= 'c24',
(PID.TID 0000.0001)   51  PTRACERS_names(43)= 'c25',
(PID.TID 0000.0001)   52  PTRACERS_names(44)= 'c26',
(PID.TID 0000.0001)   53  PTRACERS_names(45)= 'c27',
(PID.TID 0000.0001)   54  PTRACERS_names(46)= 'c28',
(PID.TID 0000.0001)   55  PTRACERS_names(47)= 'c29',
(PID.TID 0000.0001)   56  PTRACERS_names(48)= 'c30',
(PID.TID 0000.0001)   57  PTRACERS_names(49)= 'c31',
(PID.TID 0000.0001)   58  PTRACERS_names(50)= 'c32',
(PID.TID 0000.0001)   59  PTRACERS_names(51)= 'c33',
(PID.TID 0000.0001)   60  PTRACERS_names(52)= 'c34',
(PID.TID 0000.0001)   61  PTRACERS_names(53)= 'c35',
(PID.TID 0000.0001)   62  PTRACERS_names(54)= 'c36',
(PID.TID 0000.0001)   63  PTRACERS_names(55)= 'c37',
(PID.TID 0000.0001)   64  PTRACERS_names(56)= 'c38',
(PID.TID 0000.0001)   65  PTRACERS_names(57)= 'c39',
(PID.TID 0000.0001)   66  PTRACERS_names(58)= 'c40',
(PID.TID 0000.0001)   67  PTRACERS_names(59)= 'c41',
(PID.TID 0000.0001)   68  PTRACERS_names(60)= 'c42',
(PID.TID 0000.0001)   69  PTRACERS_names(61)= 'c43',
(PID.TID 0000.0001)   70  PTRACERS_names(62)= 'c44',
(PID.TID 0000.0001)   71  PTRACERS_names(63)= 'c45',
(PID.TID 0000.0001)   72  PTRACERS_names(64)= 'c46',
(PID.TID 0000.0001)   73  PTRACERS_names(65)= 'c47',
(PID.TID 0000.0001)   74  PTRACERS_names(66)= 'c48',
(PID.TID 0000.0001)   75  PTRACERS_names(67)= 'c49',
(PID.TID 0000.0001)   76  PTRACERS_names(68)= 'c50',
(PID.TID 0000.0001)   77  PTRACERS_names(69)= 'c51',
(PID.TID 0000.0001)   78  PTRACERS_names(70)= 'c52',
(PID.TID 0000.0001)   79  PTRACERS_names(71)= 'c53',
(PID.TID 0000.0001)   80  PTRACERS_names(72)= 'c54',
(PID.TID 0000.0001)   81  PTRACERS_names(73)= 'c55',
(PID.TID 0000.0001)   82  PTRACERS_names(74)= 'c56',
(PID.TID 0000.0001)   83  PTRACERS_names(75)= 'c57',
(PID.TID 0000.0001)   84  PTRACERS_names(76)= 'c58',
(PID.TID 0000.0001)   85  PTRACERS_names(77)= 'c59',
(PID.TID 0000.0001)   86  PTRACERS_names(78)= 'c60',
(PID.TID 0000.0001)   87  PTRACERS_names(79)= 'c61',
(PID.TID 0000.0001)   88  PTRACERS_names(80)= 'c62',
(PID.TID 0000.0001)   89  PTRACERS_names(81)= 'c63',
(PID.TID 0000.0001)   90  PTRACERS_names(82)= 'c64',
(PID.TID 0000.0001)   91  PTRACERS_names(83)= 'c65',
(PID.TID 0000.0001)   92  PTRACERS_names(84)= 'c66',
(PID.TID 0000.0001)   93  PTRACERS_names(85)= 'c67',
(PID.TID 0000.0001)   94  PTRACERS_names(86)= 'c68',
(PID.TID 0000.0001)   95  PTRACERS_names(87)= 'c69',
(PID.TID 0000.0001)   96  PTRACERS_names(88)= 'c70',
(PID.TID 0000.0001)   97  PTRACERS_names(89)= 'c71',
(PID.TID 0000.0001)   98  PTRACERS_names(90)= 'c72',
(PID.TID 0000.0001)   99  PTRACERS_names(91)= 'c73',
(PID.TID 0000.0001)  100  PTRACERS_names(92)= 'c74',
(PID.TID 0000.0001)  101  PTRACERS_names(93)= 'c75',
(PID.TID 0000.0001)  102  PTRACERS_names(94)= 'c76',
(PID.TID 0000.0001)  103  PTRACERS_names(95)= 'c77',
(PID.TID 0000.0001)  104  PTRACERS_names(96)= 'c78',
(PID.TID 0000.0001)  105  PTRACERS_names(97)= 'zc1',
(PID.TID 0000.0001)  106  PTRACERS_names(98)= 'zc2',
(PID.TID 0000.0001)  107  PTRACERS_units(1)='mmol C/m^3'
(PID.TID 0000.0001)  108  PTRACERS_units(2)='mmol N/m^3'
(PID.TID 0000.0001)  109  PTRACERS_units(3)='mmol N/m^3'
(PID.TID 0000.0001)  110  PTRACERS_units(4)='mmol N/m^3'
(PID.TID 0000.0001)  111  PTRACERS_units(5)='mmol P/m^3'
(PID.TID 0000.0001)  112  PTRACERS_units(6)='mmol Si/m^3'
(PID.TID 0000.0001)  113  PTRACERS_units(7)='mmol Fe/m^3'
(PID.TID 0000.0001)  114  PTRACERS_units(8)='mmol C/m^3'
(PID.TID 0000.0001)  115  PTRACERS_units(9)='mmol N/m^3'
(PID.TID 0000.0001)  116  PTRACERS_units(10)='mmol P/m^3'
(PID.TID 0000.0001)  117  PTRACERS_units(11)='mmol Fe/m^3'
(PID.TID 0000.0001)  118  PTRACERS_units(12)='mmol C/m^3'
(PID.TID 0000.0001)  119  PTRACERS_units(13)='mmol N/m^3'
(PID.TID 0000.0001)  120  PTRACERS_units(14)='mmol P/m^3'
(PID.TID 0000.0001)  121  PTRACERS_units(15)='mmol Si/m^3'
(PID.TID 0000.0001)  122  PTRACERS_units(16)='mmol Fe/m^3'
(PID.TID 0000.0001)  123  PTRACERS_units(17)='mmol C/m^3'
(PID.TID 0000.0001)  124  PTRACERS_units(18)='mmol P/m^3'
(PID.TID 0000.0001)  125  PTRACERS_units(19:98)=80*'mmol C/m^3'
(PID.TID 0000.0001)  126  PTRACERS_ref(1:35,   1)= 35*2e3,
(PID.TID 0000.0001)  127  PTRACERS_initialFile(2)='../input/input/loc1_NH4_run83_janprof.bin',
(PID.TID 0000.0001)  128  PTRACERS_initialFile(3)='../input/input/loc1_NO2_run83_janprof.bin',
(PID.TID 0000.0001)  129  PTRACERS_initialFile(4)='../input/input/loc1_nitr_janprof.bin',
(PID.TID 0000.0001)  130  PTRACERS_initialFile(5)='../input/input/loc1_phos_janprof.bin',
(PID.TID 0000.0001)  131  PTRACERS_initialFile(6)='../input/input/loc1_sil_janprof.bin',
(PID.TID 0000.0001)  132  PTRACERS_initialFile(7)='../input/input/fet_uniform.bin',
(PID.TID 0000.0001)  133  PTRACERS_ref(1:35,   8)= 35*0e0,
(PID.TID 0000.0001)  134  PTRACERS_initialFile(9)='../input/input/loc1_DON_run83_janprof.bin',
(PID.TID 0000.0001)  135  PTRACERS_initialFile(10)='../input/input/loc1_DOP_run83_janprof.bin',
(PID.TID 0000.0001)  136  PTRACERS_initialFile(11)='../input/input/loc1_DOFe_run83_janprof.bin',
(PID.TID 0000.0001)  137  PTRACERS_ref(1:35,   12)= 35*0e0,
(PID.TID 0000.0001)  138  PTRACERS_initialFile(13)='../input/input/loc1_PON_run83_janprof.bin',
(PID.TID 0000.0001)  139  PTRACERS_initialFile(14)='../input/input/loc1_POP_run83_janprof.bin',
(PID.TID 0000.0001)  140  PTRACERS_initialFile(15)='../input/input/loc1_POSi_run83_janprof.bin',
(PID.TID 0000.0001)  141  PTRACERS_initialFile(16)='../input/input/loc1_POFe_run83_janprof.bin',
(PID.TID 0000.0001)  142  PTRACERS_ref(1:35,   17)= 35*0e0,
(PID.TID 0000.0001)  143  PTRACERS_initialFile(18)='../input/input/loc1_DOP_run83_janprof.bin',
(PID.TID 0000.0001)  144  PTRACERS_initialFile(19:96)=78*'../input/input/loc1_biomass_run83_janprof.bin',
(PID.TID 0000.0001)  145  PTRACERS_initialFile(97)='../input/input/loc1_ZOOP_run83_janprof.bin',
(PID.TID 0000.0001)  146  PTRACERS_initialFile(98)='../input/input/loc1_ZOOP_run83_janprof.bin',
(PID.TID 0000.0001)  147  /
(PID.TID 0000.0001) // =======================================================
(PID.TID 0000.0001) // Parameter file "data.ptracers"
(PID.TID 0000.0001) // =======================================================
(PID.TID 0000.0001) > &PTRACERS_PARM01
(PID.TID 0000.0001) > PTRACERS_numInUse= 98,
(PID.TID 0000.0001) > PTRACERS_Iter0= 0,
(PID.TID 0000.0001) > PTRACERS_advScheme= 98*33,
(PID.TID 0000.0001) > PTRACERS_diffKh=    98*0.E3,
(PID.TID 0000.0001) > PTRACERS_diffKr=    98*1.E-5,
(PID.TID 0000.0001) > PTRACERS_useGMRedi= 98*.FALSE. ,
(PID.TID 0000.0001) > PTRACERS_useKPP=    98*.FALSE. ,
(PID.TID 0000.0001) >#
(PID.TID 0000.0001) > PTRACERS_names(1)= 'DIC',
(PID.TID 0000.0001) > PTRACERS_names(2)= 'NH4',
(PID.TID 0000.0001) > PTRACERS_names(3)= 'NO2',
(PID.TID 0000.0001) > PTRACERS_names(4)= 'NO3',
(PID.TID 0000.0001) > PTRACERS_names(5)= 'PO4',
(PID.TID 0000.0001) > PTRACERS_names(6)= 'SiO2',
(PID.TID 0000.0001) > PTRACERS_names(7)= 'FeT',
(PID.TID 0000.0001) > PTRACERS_names(8)= 'DOC',
(PID.TID 0000.0001) > PTRACERS_names(9)= 'DON',
(PID.TID 0000.0001) > PTRACERS_names(10)= 'DOP',
(PID.TID 0000.0001) > PTRACERS_names(11)= 'DOFe',
(PID.TID 0000.0001) > PTRACERS_names(12)= 'POC',
(PID.TID 0000.0001) > PTRACERS_names(13)= 'PON',
(PID.TID 0000.0001) > PTRACERS_names(14)= 'POP',
(PID.TID 0000.0001) > PTRACERS_names(15)= 'POSi',
(PID.TID 0000.0001) > PTRACERS_names(16)= 'POFe',
(PID.TID 0000.0001) > PTRACERS_names(17)= 'PIC',
(PID.TID 0000.0001) > PTRACERS_names(18)= 'CDOM',
(PID.TID 0000.0001) > PTRACERS_names(19)= 'c01',
(PID.TID 0000.0001) > PTRACERS_names(20)= 'c02',
(PID.TID 0000.0001) > PTRACERS_names(21)= 'c03',
(PID.TID 0000.0001) > PTRACERS_names(22)= 'c04',
(PID.TID 0000.0001) > PTRACERS_names(23)= 'c05',
(PID.TID 0000.0001) > PTRACERS_names(24)= 'c06',
(PID.TID 0000.0001) > PTRACERS_names(25)= 'c07',
(PID.TID 0000.0001) > PTRACERS_names(26)= 'c08',
(PID.TID 0000.0001) > PTRACERS_names(27)= 'c09',
(PID.TID 0000.0001) > PTRACERS_names(28)= 'c10',
(PID.TID 0000.0001) > PTRACERS_names(29)= 'c11',
(PID.TID 0000.0001) > PTRACERS_names(30)= 'c12',
(PID.TID 0000.0001) > PTRACERS_names(31)= 'c13',
(PID.TID 0000.0001) > PTRACERS_names(32)= 'c14',
(PID.TID 0000.0001) > PTRACERS_names(33)= 'c15',
(PID.TID 0000.0001) > PTRACERS_names(34)= 'c16',
(PID.TID 0000.0001) > PTRACERS_names(35)= 'c17',
(PID.TID 0000.0001) > PTRACERS_names(36)= 'c18',
(PID.TID 0000.0001) > PTRACERS_names(37)= 'c19',
(PID.TID 0000.0001) > PTRACERS_names(38)= 'c20',
(PID.TID 0000.0001) > PTRACERS_names(39)= 'c21',
(PID.TID 0000.0001) > PTRACERS_names(40)= 'c22',
(PID.TID 0000.0001) > PTRACERS_names(41)= 'c23',
(PID.TID 0000.0001) > PTRACERS_names(42)= 'c24',
(PID.TID 0000.0001) > PTRACERS_names(43)= 'c25',
(PID.TID 0000.0001) > PTRACERS_names(44)= 'c26',
(PID.TID 0000.0001) > PTRACERS_names(45)= 'c27',
(PID.TID 0000.0001) > PTRACERS_names(46)= 'c28',
(PID.TID 0000.0001) > PTRACERS_names(47)= 'c29',
(PID.TID 0000.0001) > PTRACERS_names(48)= 'c30',
(PID.TID 0000.0001) > PTRACERS_names(49)= 'c31',
(PID.TID 0000.0001) > PTRACERS_names(50)= 'c32',
(PID.TID 0000.0001) > PTRACERS_names(51)= 'c33',
(PID.TID 0000.0001) > PTRACERS_names(52)= 'c34',
(PID.TID 0000.0001) > PTRACERS_names(53)= 'c35',
(PID.TID 0000.0001) > PTRACERS_names(54)= 'c36',
(PID.TID 0000.0001) > PTRACERS_names(55)= 'c37',
(PID.TID 0000.0001) > PTRACERS_names(56)= 'c38',
(PID.TID 0000.0001) > PTRACERS_names(57)= 'c39',
(PID.TID 0000.0001) > PTRACERS_names(58)= 'c40',
(PID.TID 0000.0001) > PTRACERS_names(59)= 'c41',
(PID.TID 0000.0001) > PTRACERS_names(60)= 'c42',
(PID.TID 0000.0001) > PTRACERS_names(61)= 'c43',
(PID.TID 0000.0001) > PTRACERS_names(62)= 'c44',
(PID.TID 0000.0001) > PTRACERS_names(63)= 'c45',
(PID.TID 0000.0001) > PTRACERS_names(64)= 'c46',
(PID.TID 0000.0001) > PTRACERS_names(65)= 'c47',
(PID.TID 0000.0001) > PTRACERS_names(66)= 'c48',
(PID.TID 0000.0001) > PTRACERS_names(67)= 'c49',
(PID.TID 0000.0001) > PTRACERS_names(68)= 'c50',
(PID.TID 0000.0001) > PTRACERS_names(69)= 'c51',
(PID.TID 0000.0001) > PTRACERS_names(70)= 'c52',
(PID.TID 0000.0001) > PTRACERS_names(71)= 'c53',
(PID.TID 0000.0001) > PTRACERS_names(72)= 'c54',
(PID.TID 0000.0001) > PTRACERS_names(73)= 'c55',
(PID.TID 0000.0001) > PTRACERS_names(74)= 'c56',
(PID.TID 0000.0001) > PTRACERS_names(75)= 'c57',
(PID.TID 0000.0001) > PTRACERS_names(76)= 'c58',
(PID.TID 0000.0001) > PTRACERS_names(77)= 'c59',
(PID.TID 0000.0001) > PTRACERS_names(78)= 'c60',
(PID.TID 0000.0001) > PTRACERS_names(79)= 'c61',
(PID.TID 0000.0001) > PTRACERS_names(80)= 'c62',
(PID.TID 0000.0001) > PTRACERS_names(81)= 'c63',
(PID.TID 0000.0001) > PTRACERS_names(82)= 'c64',
(PID.TID 0000.0001) > PTRACERS_names(83)= 'c65',
(PID.TID 0000.0001) > PTRACERS_names(84)= 'c66',
(PID.TID 0000.0001) > PTRACERS_names(85)= 'c67',
(PID.TID 0000.0001) > PTRACERS_names(86)= 'c68',
(PID.TID 0000.0001) > PTRACERS_names(87)= 'c69',
(PID.TID 0000.0001) > PTRACERS_names(88)= 'c70',
(PID.TID 0000.0001) > PTRACERS_names(89)= 'c71',
(PID.TID 0000.0001) > PTRACERS_names(90)= 'c72',
(PID.TID 0000.0001) > PTRACERS_names(91)= 'c73',
(PID.TID 0000.0001) > PTRACERS_names(92)= 'c74',
(PID.TID 0000.0001) > PTRACERS_names(93)= 'c75',
(PID.TID 0000.0001) > PTRACERS_names(94)= 'c76',
(PID.TID 0000.0001) > PTRACERS_names(95)= 'c77',
(PID.TID 0000.0001) > PTRACERS_names(96)= 'c78',
(PID.TID 0000.0001) > PTRACERS_names(97)= 'zc1',
(PID.TID 0000.0001) > PTRACERS_names(98)= 'zc2',
(PID.TID 0000.0001) >#
(PID.TID 0000.0001) > PTRACERS_units(1)='mmol C/m^3'
(PID.TID 0000.0001) > PTRACERS_units(2)='mmol N/m^3'
(PID.TID 0000.0001) > PTRACERS_units(3)='mmol N/m^3'
(PID.TID 0000.0001) > PTRACERS_units(4)='mmol N/m^3'
(PID.TID 0000.0001) > PTRACERS_units(5)='mmol P/m^3'
(PID.TID 0000.0001) > PTRACERS_units(6)='mmol Si/m^3'
(PID.TID 0000.0001) > PTRACERS_units(7)='mmol Fe/m^3'
(PID.TID 0000.0001) > PTRACERS_units(8)='mmol C/m^3'
(PID.TID 0000.0001) > PTRACERS_units(9)='mmol N/m^3'
(PID.TID 0000.0001) > PTRACERS_units(10)='mmol P/m^3'
(PID.TID 0000.0001) > PTRACERS_units(11)='mmol Fe/m^3'
(PID.TID 0000.0001) > PTRACERS_units(12)='mmol C/m^3'
(PID.TID 0000.0001) > PTRACERS_units(13)='mmol N/m^3'
(PID.TID 0000.0001) > PTRACERS_units(14)='mmol P/m^3'
(PID.TID 0000.0001) > PTRACERS_units(15)='mmol Si/m^3'
(PID.TID 0000.0001) > PTRACERS_units(16)='mmol Fe/m^3'
(PID.TID 0000.0001) > PTRACERS_units(17)='mmol C/m^3'
(PID.TID 0000.0001) > PTRACERS_units(18)='mmol P/m^3'
(PID.TID 0000.0001) > PTRACERS_units(19:98)=80*'mmol C/m^3'
(PID.TID 0000.0001) >#
(PID.TID 0000.0001) > PTRACERS_ref(1:35,   1)= 35*2e3,
(PID.TID 0000.0001) > PTRACERS_initialFile(2)='../input/input/loc1_NH4_run83_janprof.bin',
(PID.TID 0000.0001) > PTRACERS_initialFile(3)='../input/input/loc1_NO2_run83_janprof.bin',
(PID.TID 0000.0001) > PTRACERS_initialFile(4)='../input/input/loc1_nitr_janprof.bin',
(PID.TID 0000.0001) > PTRACERS_initialFile(5)='../input/input/loc1_phos_janprof.bin',
(PID.TID 0000.0001) > PTRACERS_initialFile(6)='../input/input/loc1_sil_janprof.bin',
(PID.TID 0000.0001) > PTRACERS_initialFile(7)='../input/input/fet_uniform.bin',
(PID.TID 0000.0001) > PTRACERS_ref(1:35,   8)= 35*0e0,
(PID.TID 0000.0001) > PTRACERS_initialFile(9)='../input/input/loc1_DON_run83_janprof.bin',
(PID.TID 0000.0001) > PTRACERS_initialFile(10)='../input/input/loc1_DOP_run83_janprof.bin',
(PID.TID 0000.0001) > PTRACERS_initialFile(11)='../input/input/loc1_DOFe_run83_janprof.bin',
(PID.TID 0000.0001) > PTRACERS_ref(1:35,   12)= 35*0e0,
(PID.TID 0000.0001) > PTRACERS_initialFile(13)='../input/input/loc1_PON_run83_janprof.bin',
(PID.TID 0000.0001) > PTRACERS_initialFile(14)='../input/input/loc1_POP_run83_janprof.bin',
(PID.TID 0000.0001) > PTRACERS_initialFile(15)='../input/input/loc1_POSi_run83_janprof.bin',
(PID.TID 0000.0001) > PTRACERS_initialFile(16)='../input/input/loc1_POFe_run83_janprof.bin',
(PID.TID 0000.0001) > PTRACERS_ref(1:35,   17)= 35*0e0,
(PID.TID 0000.0001) > PTRACERS_initialFile(18)='../input/input/loc1_DOP_run83_janprof.bin',
(PID.TID 0000.0001) > PTRACERS_initialFile(19:96)=78*'../input/input/loc1_biomass_run83_janprof.bin',
(PID.TID 0000.0001) > PTRACERS_initialFile(97)='../input/input/loc1_ZOOP_run83_janprof.bin',
(PID.TID 0000.0001) > PTRACERS_initialFile(98)='../input/input/loc1_ZOOP_run83_janprof.bin',
(PID.TID 0000.0001) > /
(PID.TID 0000.0001) 
(PID.TID 0000.0001)  PTRACERS_READPARMS: finished reading data.ptracers
(PID.TID 0000.0001)  GCHEM_READPARMS: opening data.gchem
(PID.TID 0000.0001)  OPEN_COPY_DATA_FILE: opening file data.gchem
(PID.TID 0000.0001) // =======================================================
(PID.TID 0000.0001) // Removing comments from "data.gchem"
(PID.TID 0000.0001) // =======================================================
(PID.TID 0000.0001)    1  &GCHEM_PARM01
(PID.TID 0000.0001)    2   useGUD=.TRUE.,
(PID.TID 0000.0001)    3   nsubtime=1,
(PID.TID 0000.0001)    4  /
(PID.TID 0000.0001) // =======================================================
(PID.TID 0000.0001) // Parameter file "data.gchem"
(PID.TID 0000.0001) // =======================================================
(PID.TID 0000.0001) > &GCHEM_PARM01
(PID.TID 0000.0001) >  useGUD=.TRUE.,
(PID.TID 0000.0001) >  nsubtime=1,
(PID.TID 0000.0001) > /
(PID.TID 0000.0001) 
(PID.TID 0000.0001)  GCHEM_READPARMS: finished reading data.gchem
(PID.TID 0000.0001)  GUD_READPARMS: opening data.gud
(PID.TID 0000.0001)  OPEN_COPY_DATA_FILE: opening file data.gud
(PID.TID 0000.0001) // =======================================================
(PID.TID 0000.0001) // Removing comments from "data.gud"
(PID.TID 0000.0001) // =======================================================
(PID.TID 0000.0001)    1  &GUD_FORCING_PARAMS
(PID.TID 0000.0001)    2  ironFile='../input/input/loc1_FeFlux_monsurf.bin',
(PID.TID 0000.0001)    3  ironPeriod= -12.
(PID.TID 0000.0001)    4  gud_inscal_iron= 1000.,
(PID.TID 0000.0001)    5  gud_chlInitBalanced= .TRUE.,
(PID.TID 0000.0001)    6  OASIM_EdFile( 1)='../input/input/loc1_oasim_edp01_below.bin',
(PID.TID 0000.0001)    7  OASIM_EdFile( 2)='../input/input/loc1_oasim_edp02_below.bin',
(PID.TID 0000.0001)    8  OASIM_EdFile( 3)='../input/input/loc1_oasim_edp03_below.bin',
(PID.TID 0000.0001)    9  OASIM_EdFile( 4)='../input/input/loc1_oasim_edp04_below.bin',
(PID.TID 0000.0001)   10  OASIM_EdFile( 5)='../input/input/loc1_oasim_edp05_below.bin',
(PID.TID 0000.0001)   11  OASIM_EdFile( 6)='../input/input/loc1_oasim_edp06_below.bin',
(PID.TID 0000.0001)   12  OASIM_EdFile( 7)='../input/input/loc1_oasim_edp07_below.bin',
(PID.TID 0000.0001)   13  OASIM_EdFile( 8)='../input/input/loc1_oasim_edp08_below.bin',
(PID.TID 0000.0001)   14  OASIM_EdFile( 9)='../input/input/loc1_oasim_edp09_below.bin',
(PID.TID 0000.0001)   15  OASIM_EdFile(10)='../input/input/loc1_oasim_edp10_below.bin',
(PID.TID 0000.0001)   16  OASIM_EdFile(11)='../input/input/loc1_oasim_edp11_below.bin',
(PID.TID 0000.0001)   17  OASIM_EdFile(12)='../input/input/loc1_oasim_edp12_below.bin',
(PID.TID 0000.0001)   18  OASIM_EdFile(13)='../input/input/loc1_oasim_edp13_below.bin',
(PID.TID 0000.0001)   19  OASIM_EsFile( 1)='../input/input/loc1_oasim_esp01_below.bin',
(PID.TID 0000.0001)   20  OASIM_EsFile( 2)='../input/input/loc1_oasim_esp02_below.bin',
(PID.TID 0000.0001)   21  OASIM_EsFile( 3)='../input/input/loc1_oasim_esp03_below.bin',
(PID.TID 0000.0001)   22  OASIM_EsFile( 4)='../input/input/loc1_oasim_esp04_below.bin',
(PID.TID 0000.0001)   23  OASIM_EsFile( 5)='../input/input/loc1_oasim_esp05_below.bin',
(PID.TID 0000.0001)   24  OASIM_EsFile( 6)='../input/input/loc1_oasim_esp06_below.bin',
(PID.TID 0000.0001)   25  OASIM_EsFile( 7)='../input/input/loc1_oasim_esp07_below.bin',
(PID.TID 0000.0001)   26  OASIM_EsFile( 8)='../input/input/loc1_oasim_esp08_below.bin',
(PID.TID 0000.0001)   27  OASIM_EsFile( 9)='../input/input/loc1_oasim_esp09_below.bin',
(PID.TID 0000.0001)   28  OASIM_EsFile(10)='../input/input/loc1_oasim_esp10_below.bin',
(PID.TID 0000.0001)   29  OASIM_EsFile(11)='../input/input/loc1_oasim_esp11_below.bin',
(PID.TID 0000.0001)   30  OASIM_EsFile(12)='../input/input/loc1_oasim_esp12_below.bin',
(PID.TID 0000.0001)   31  OASIM_EsFile(13)='../input/input/loc1_oasim_esp13_below.bin',
(PID.TID 0000.0001)   32  OASIMPeriod= -12.,
(PID.TID 0000.0001)   33  /
(PID.TID 0000.0001)   34  &GUD_PARAMS
(PID.TID 0000.0001)   35  gud_seed=11231,
(PID.TID 0000.0001)   36  gud_read_phos= T,
(PID.TID 0000.0001)   37  /
(PID.TID 0000.0001)   38  &GUD_RADTRANS_PARAMS
(PID.TID 0000.0001)   39  gud_waterabsorbFile='abw25par.dat',
(PID.TID 0000.0001)   40  gud_phytoabsorbFile='optics_phyto_9_bandave25.txt',
(PID.TID 0000.0001)   41  gud_particleabsorbFile='optics_detritus_3bb.dat',
(PID.TID 0000.0001)   42  gud_radtrans_kmax=22,
(PID.TID 0000.0001)   43  gud_waveband_edges=400,412.5,437.5,462.5,487.5,512.5,537.5,562.5,587.5,612.5,637.5,662.5,687.5,700,
(PID.TID 0000.0001)   44  gud_waveband_centers=400,425,450,475,500,525,550,575,600,625,650,675,700,
(PID.TID 0000.0001)   45  /
(PID.TID 0000.0001)   46  &GUD_CDOM_PARAMS
(PID.TID 0000.0001)   47  /
(PID.TID 0000.0001)   48  &GUD_RANDOM_PARAMS
(PID.TID 0000.0001)   49  oldTwoGrazers= .TRUE.,
(PID.TID 0000.0001)   50  diatom_growfac= 1.0,
(PID.TID 0000.0001)   51  /
(PID.TID 0000.0001)   52  &GUD_TRAIT_PARAMS
(PID.TID 0000.0001)   53  /
(PID.TID 0000.0001) // =======================================================
(PID.TID 0000.0001) // Parameter file "data.gud"
(PID.TID 0000.0001) // =======================================================
(PID.TID 0000.0001) > &GUD_FORCING_PARAMS
(PID.TID 0000.0001) > ironFile='../input/input/loc1_FeFlux_monsurf.bin',
(PID.TID 0000.0001) > ironPeriod= -12.
(PID.TID 0000.0001) > gud_inscal_iron= 1000.,
(PID.TID 0000.0001) > gud_chlInitBalanced= .TRUE.,
(PID.TID 0000.0001) >#
(PID.TID 0000.0001) >#PARFile='../input/input/loc1_PAR_monsurf.bin',
(PID.TID 0000.0001) >#
(PID.TID 0000.0001) > OASIM_EdFile( 1)='../input/input/loc1_oasim_edp01_below.bin',
(PID.TID 0000.0001) > OASIM_EdFile( 2)='../input/input/loc1_oasim_edp02_below.bin',
(PID.TID 0000.0001) > OASIM_EdFile( 3)='../input/input/loc1_oasim_edp03_below.bin',
(PID.TID 0000.0001) > OASIM_EdFile( 4)='../input/input/loc1_oasim_edp04_below.bin',
(PID.TID 0000.0001) > OASIM_EdFile( 5)='../input/input/loc1_oasim_edp05_below.bin',
(PID.TID 0000.0001) > OASIM_EdFile( 6)='../input/input/loc1_oasim_edp06_below.bin',
(PID.TID 0000.0001) > OASIM_EdFile( 7)='../input/input/loc1_oasim_edp07_below.bin',
(PID.TID 0000.0001) > OASIM_EdFile( 8)='../input/input/loc1_oasim_edp08_below.bin',
(PID.TID 0000.0001) > OASIM_EdFile( 9)='../input/input/loc1_oasim_edp09_below.bin',
(PID.TID 0000.0001) > OASIM_EdFile(10)='../input/input/loc1_oasim_edp10_below.bin',
(PID.TID 0000.0001) > OASIM_EdFile(11)='../input/input/loc1_oasim_edp11_below.bin',
(PID.TID 0000.0001) > OASIM_EdFile(12)='../input/input/loc1_oasim_edp12_below.bin',
(PID.TID 0000.0001) > OASIM_EdFile(13)='../input/input/loc1_oasim_edp13_below.bin',
(PID.TID 0000.0001) > OASIM_EsFile( 1)='../input/input/loc1_oasim_esp01_below.bin',
(PID.TID 0000.0001) > OASIM_EsFile( 2)='../input/input/loc1_oasim_esp02_below.bin',
(PID.TID 0000.0001) > OASIM_EsFile( 3)='../input/input/loc1_oasim_esp03_below.bin',
(PID.TID 0000.0001) > OASIM_EsFile( 4)='../input/input/loc1_oasim_esp04_below.bin',
(PID.TID 0000.0001) > OASIM_EsFile( 5)='../input/input/loc1_oasim_esp05_below.bin',
(PID.TID 0000.0001) > OASIM_EsFile( 6)='../input/input/loc1_oasim_esp06_below.bin',
(PID.TID 0000.0001) > OASIM_EsFile( 7)='../input/input/loc1_oasim_esp07_below.bin',
(PID.TID 0000.0001) > OASIM_EsFile( 8)='../input/input/loc1_oasim_esp08_below.bin',
(PID.TID 0000.0001) > OASIM_EsFile( 9)='../input/input/loc1_oasim_esp09_below.bin',
(PID.TID 0000.0001) > OASIM_EsFile(10)='../input/input/loc1_oasim_esp10_below.bin',
(PID.TID 0000.0001) > OASIM_EsFile(11)='../input/input/loc1_oasim_esp11_below.bin',
(PID.TID 0000.0001) > OASIM_EsFile(12)='../input/input/loc1_oasim_esp12_below.bin',
(PID.TID 0000.0001) > OASIM_EsFile(13)='../input/input/loc1_oasim_esp13_below.bin',
(PID.TID 0000.0001) > OASIMPeriod= -12.,
(PID.TID 0000.0001) > /
(PID.TID 0000.0001) > &GUD_PARAMS
(PID.TID 0000.0001) > gud_seed=11231,
(PID.TID 0000.0001) > gud_read_phos= T,
(PID.TID 0000.0001) > /
(PID.TID 0000.0001) > &GUD_RADTRANS_PARAMS
(PID.TID 0000.0001) > gud_waterabsorbFile='abw25par.dat',
(PID.TID 0000.0001) > gud_phytoabsorbFile='optics_phyto_9_bandave25.txt',
(PID.TID 0000.0001) > gud_particleabsorbFile='optics_detritus_3bb.dat',
(PID.TID 0000.0001) >#gud_aCDOMFile='aCDOM13amtVK2006.dat',
(PID.TID 0000.0001) > gud_radtrans_kmax=22,
(PID.TID 0000.0001) > gud_waveband_edges=400,412.5,437.5,462.5,487.5,512.5,537.5,562.5,587.5,612.5,637.5,662.5,687.5,700,
(PID.TID 0000.0001) > gud_waveband_centers=400,425,450,475,500,525,550,575,600,625,650,675,700,
(PID.TID 0000.0001) > /
(PID.TID 0000.0001) > &GUD_CDOM_PARAMS
(PID.TID 0000.0001) > /
(PID.TID 0000.0001) > &GUD_RANDOM_PARAMS
(PID.TID 0000.0001) > oldTwoGrazers= .TRUE.,
(PID.TID 0000.0001) > diatom_growfac= 1.0,
(PID.TID 0000.0001) > /
(PID.TID 0000.0001) > &GUD_TRAIT_PARAMS
(PID.TID 0000.0001) > /
(PID.TID 0000.0001) 
(PID.TID 0000.0001)  ===================================
(PID.TID 0000.0001)  DIAGNOSTICS_READPARMS: opening data.diagnostics
(PID.TID 0000.0001)  OPEN_COPY_DATA_FILE: opening file data.diagnostics
(PID.TID 0000.0001) // =======================================================
(PID.TID 0000.0001) // Removing comments from "data.diagnostics"
(PID.TID 0000.0001) // =======================================================
(PID.TID 0000.0001)    1  &diagnostics_list
(PID.TID 0000.0001)    2   frequency(1) = 3600.,
(PID.TID 0000.0001)    3   fields( 1,1) = 'TRAC01  ',
(PID.TID 0000.0001)    4   fields( 2,1) = 'TRAC02  ',
(PID.TID 0000.0001)    5   fields( 3,1) = 'TRAC03  ',
(PID.TID 0000.0001)    6   fields( 4,1) = 'TRAC04  ',
(PID.TID 0000.0001)    7   fields( 5,1) = 'TRAC05  ',
(PID.TID 0000.0001)    8   fields( 6,1) = 'TRAC06  ',
(PID.TID 0000.0001)    9   fields( 7,1) = 'TRAC07  ',
(PID.TID 0000.0001)   10   fields( 8,1) = 'TRAC08  ',
(PID.TID 0000.0001)   11   fields( 9,1) = 'TRAC09  ',
(PID.TID 0000.0001)   12   fields(10,1) = 'TRAC10  ',
(PID.TID 0000.0001)   13   fields(11,1) = 'TRAC11  ',
(PID.TID 0000.0001)   14   fields(12,1) = 'TRAC12  ',
(PID.TID 0000.0001)   15   fields(13,1) = 'TRAC13  ',
(PID.TID 0000.0001)   16   fields(14,1) = 'TRAC14  ',
(PID.TID 0000.0001)   17   fields(15,1) = 'TRAC15  ',
(PID.TID 0000.0001)   18   fields(16,1) = 'TRAC16  ',
(PID.TID 0000.0001)   19   fields(17,1) = 'TRAC17  ',
(PID.TID 0000.0001)   20   fields(18,1) = 'TRAC18  ',
(PID.TID 0000.0001)   21   fields(19,1) = 'TRAC19  ',
(PID.TID 0000.0001)   22   fields(20,1) = 'TRAC20  ',
(PID.TID 0000.0001)   23   fields(21,1) = 'TRAC21  ',
(PID.TID 0000.0001)   24   fields(22,1) = 'TRAC22  ',
(PID.TID 0000.0001)   25   fields(23,1) = 'TRAC23  ',
(PID.TID 0000.0001)   26   fields(24,1) = 'TRAC24  ',
(PID.TID 0000.0001)   27   fields(25,1) = 'TRAC25  ',
(PID.TID 0000.0001)   28   fields(26,1) = 'TRAC26  ',
(PID.TID 0000.0001)   29   fields(27,1) = 'TRAC27  ',
(PID.TID 0000.0001)   30   fields(28,1) = 'TRAC28  ',
(PID.TID 0000.0001)   31   fields(29,1) = 'TRAC29  ',
(PID.TID 0000.0001)   32   fields(30,1) = 'TRAC30  ',
(PID.TID 0000.0001)   33   fields(31,1) = 'TRAC31  ',
(PID.TID 0000.0001)   34   fields(32,1) = 'TRAC32  ',
(PID.TID 0000.0001)   35   fields(33,1) = 'TRAC33  ',
(PID.TID 0000.0001)   36   fields(34,1) = 'TRAC34  ',
(PID.TID 0000.0001)   37   fields(35,1) = 'TRAC35  ',
(PID.TID 0000.0001)   38   fields(36,1) = 'TRAC36  ',
(PID.TID 0000.0001)   39   fields(37,1) = 'TRAC37  ',
(PID.TID 0000.0001)   40   fields(38,1) = 'TRAC38  ',
(PID.TID 0000.0001)   41   fields(39,1) = 'TRAC39  ',
(PID.TID 0000.0001)   42   fields(40,1) = 'TRAC40  ',
(PID.TID 0000.0001)   43   fields(41,1) = 'TRAC41  ',
(PID.TID 0000.0001)   44   fields(42,1) = 'TRAC42  ',
(PID.TID 0000.0001)   45   fields(43,1) = 'TRAC43  ',
(PID.TID 0000.0001)   46   fields(44,1) = 'TRAC44  ',
(PID.TID 0000.0001)   47   fields(45,1) = 'TRAC45  ',
(PID.TID 0000.0001)   48   fields(46,1) = 'TRAC46  ',
(PID.TID 0000.0001)   49   fields(47,1) = 'TRAC47  ',
(PID.TID 0000.0001)   50   fields(48,1) = 'TRAC48  ',
(PID.TID 0000.0001)   51   fields(49,1) = 'TRAC49  ',
(PID.TID 0000.0001)   52   fields(50,1) = 'TRAC50  ',
(PID.TID 0000.0001)   53   fields(51,1) = 'TRAC51  ',
(PID.TID 0000.0001)   54   fields(52,1) = 'TRAC52  ',
(PID.TID 0000.0001)   55   fields(53,1) = 'TRAC53  ',
(PID.TID 0000.0001)   56   fields(54,1) = 'TRAC54  ',
(PID.TID 0000.0001)   57   fields(55,1) = 'TRAC55  ',
(PID.TID 0000.0001)   58   fields(56,1) = 'TRAC56  ',
(PID.TID 0000.0001)   59   fields(57,1) = 'TRAC57  ',
(PID.TID 0000.0001)   60   fields(58,1) = 'TRAC58  ',
(PID.TID 0000.0001)   61   fields(59,1) = 'TRAC59  ',
(PID.TID 0000.0001)   62   fields(60,1) = 'TRAC60  ',
(PID.TID 0000.0001)   63   fields(61,1) = 'TRAC61  ',
(PID.TID 0000.0001)   64   fields(62,1) = 'TRAC62  ',
(PID.TID 0000.0001)   65   fields(63,1) = 'TRAC63  ',
(PID.TID 0000.0001)   66   fields(64,1) = 'TRAC64  ',
(PID.TID 0000.0001)   67   fields(65,1) = 'TRAC65  ',
(PID.TID 0000.0001)   68   fields(66,1) = 'TRAC66  ',
(PID.TID 0000.0001)   69   fields(67,1) = 'TRAC67  ',
(PID.TID 0000.0001)   70   fields(68,1) = 'TRAC68  ',
(PID.TID 0000.0001)   71   fields(69,1) = 'TRAC69  ',
(PID.TID 0000.0001)   72   fields(70,1) = 'TRAC70  ',
(PID.TID 0000.0001)   73   fields(71,1) = 'TRAC71  ',
(PID.TID 0000.0001)   74   fields(72,1) = 'TRAC72  ',
(PID.TID 0000.0001)   75   fields(73,1) = 'TRAC73  ',
(PID.TID 0000.0001)   76   fields(74,1) = 'TRAC74  ',
(PID.TID 0000.0001)   77   fields(75,1) = 'TRAC75  ',
(PID.TID 0000.0001)   78   fields(76,1) = 'TRAC76  ',
(PID.TID 0000.0001)   79   fields(77,1) = 'TRAC77  ',
(PID.TID 0000.0001)   80   fields(78,1) = 'TRAC78  ',
(PID.TID 0000.0001)   81   fields(79,1) = 'TRAC79  ',
(PID.TID 0000.0001)   82   fields(80,1) = 'TRAC80  ',
(PID.TID 0000.0001)   83   fields(81,1) = 'TRAC81  ',
(PID.TID 0000.0001)   84   fields(82,1) = 'TRAC82  ',
(PID.TID 0000.0001)   85   fields(83,1) = 'TRAC83  ',
(PID.TID 0000.0001)   86   fields(84,1) = 'TRAC84  ',
(PID.TID 0000.0001)   87   fields(85,1) = 'TRAC85  ',
(PID.TID 0000.0001)   88   fields(86,1) = 'TRAC86  ',
(PID.TID 0000.0001)   89   fields(87,1) = 'TRAC87  ',
(PID.TID 0000.0001)   90   fields(88,1) = 'TRAC88  ',
(PID.TID 0000.0001)   91   fields(89,1) = 'TRAC89  ',
(PID.TID 0000.0001)   92   fields(90,1) = 'TRAC90  ',
(PID.TID 0000.0001)   93   fields(91,1) = 'TRAC91  ',
(PID.TID 0000.0001)   94   fields(92,1) = 'TRAC92  ',
(PID.TID 0000.0001)   95   fields(93,1) = 'TRAC93  ',
(PID.TID 0000.0001)   96   fields(94,1) = 'TRAC94  ',
(PID.TID 0000.0001)   97   fields(95,1) = 'TRAC95  ',
(PID.TID 0000.0001)   98   fields(96,1) = 'TRAC96  ',
(PID.TID 0000.0001)   99   fields(97,1) = 'TRAC97  ',
(PID.TID 0000.0001)  100   fields(98,1) = 'TRAC98  ',
(PID.TID 0000.0001)  101     filename(1) = 'gud',
(PID.TID 0000.0001)  102  /
(PID.TID 0000.0001)  103
(PID.TID 0000.0001)  104  &DIAG_STATIS_PARMS
(PID.TID 0000.0001)  105  diagst_mnc=.FALSE.,
(PID.TID 0000.0001)  106  /
(PID.TID 0000.0001) // =======================================================
(PID.TID 0000.0001) // Parameter file "data.diagnostics"
(PID.TID 0000.0001) // =======================================================
(PID.TID 0000.0001) ># Gud diagnostics
(PID.TID 0000.0001) ># ==================
(PID.TID 0000.0001) > &diagnostics_list
(PID.TID 0000.0001) >#
(PID.TID 0000.0001) >  frequency(1) = 3600.,
(PID.TID 0000.0001) >  fields( 1,1) = 'TRAC01  ',
(PID.TID 0000.0001) >  fields( 2,1) = 'TRAC02  ',
(PID.TID 0000.0001) >  fields( 3,1) = 'TRAC03  ',
(PID.TID 0000.0001) >  fields( 4,1) = 'TRAC04  ',
(PID.TID 0000.0001) >  fields( 5,1) = 'TRAC05  ',
(PID.TID 0000.0001) >  fields( 6,1) = 'TRAC06  ',
(PID.TID 0000.0001) >  fields( 7,1) = 'TRAC07  ',
(PID.TID 0000.0001) >  fields( 8,1) = 'TRAC08  ',
(PID.TID 0000.0001) >  fields( 9,1) = 'TRAC09  ',
(PID.TID 0000.0001) >  fields(10,1) = 'TRAC10  ',
(PID.TID 0000.0001) >  fields(11,1) = 'TRAC11  ',
(PID.TID 0000.0001) >  fields(12,1) = 'TRAC12  ',
(PID.TID 0000.0001) >  fields(13,1) = 'TRAC13  ',
(PID.TID 0000.0001) >  fields(14,1) = 'TRAC14  ',
(PID.TID 0000.0001) >  fields(15,1) = 'TRAC15  ',
(PID.TID 0000.0001) >  fields(16,1) = 'TRAC16  ',
(PID.TID 0000.0001) >  fields(17,1) = 'TRAC17  ',
(PID.TID 0000.0001) >  fields(18,1) = 'TRAC18  ',
(PID.TID 0000.0001) >  fields(19,1) = 'TRAC19  ',
(PID.TID 0000.0001) >  fields(20,1) = 'TRAC20  ',
(PID.TID 0000.0001) >  fields(21,1) = 'TRAC21  ',
(PID.TID 0000.0001) >  fields(22,1) = 'TRAC22  ',
(PID.TID 0000.0001) >  fields(23,1) = 'TRAC23  ',
(PID.TID 0000.0001) >  fields(24,1) = 'TRAC24  ',
(PID.TID 0000.0001) >  fields(25,1) = 'TRAC25  ',
(PID.TID 0000.0001) >  fields(26,1) = 'TRAC26  ',
(PID.TID 0000.0001) >  fields(27,1) = 'TRAC27  ',
(PID.TID 0000.0001) >  fields(28,1) = 'TRAC28  ',
(PID.TID 0000.0001) >  fields(29,1) = 'TRAC29  ',
(PID.TID 0000.0001) >  fields(30,1) = 'TRAC30  ',
(PID.TID 0000.0001) >  fields(31,1) = 'TRAC31  ',
(PID.TID 0000.0001) >  fields(32,1) = 'TRAC32  ',
(PID.TID 0000.0001) >  fields(33,1) = 'TRAC33  ',
(PID.TID 0000.0001) >  fields(34,1) = 'TRAC34  ',
(PID.TID 0000.0001) >  fields(35,1) = 'TRAC35  ',
(PID.TID 0000.0001) >  fields(36,1) = 'TRAC36  ',
(PID.TID 0000.0001) >  fields(37,1) = 'TRAC37  ',
(PID.TID 0000.0001) >  fields(38,1) = 'TRAC38  ',
(PID.TID 0000.0001) >  fields(39,1) = 'TRAC39  ',
(PID.TID 0000.0001) >  fields(40,1) = 'TRAC40  ',
(PID.TID 0000.0001) >  fields(41,1) = 'TRAC41  ',
(PID.TID 0000.0001) >  fields(42,1) = 'TRAC42  ',
(PID.TID 0000.0001) >  fields(43,1) = 'TRAC43  ',
(PID.TID 0000.0001) >  fields(44,1) = 'TRAC44  ',
(PID.TID 0000.0001) >  fields(45,1) = 'TRAC45  ',
(PID.TID 0000.0001) >  fields(46,1) = 'TRAC46  ',
(PID.TID 0000.0001) >  fields(47,1) = 'TRAC47  ',
(PID.TID 0000.0001) >  fields(48,1) = 'TRAC48  ',
(PID.TID 0000.0001) >  fields(49,1) = 'TRAC49  ',
(PID.TID 0000.0001) >  fields(50,1) = 'TRAC50  ',
(PID.TID 0000.0001) >  fields(51,1) = 'TRAC51  ',
(PID.TID 0000.0001) >  fields(52,1) = 'TRAC52  ',
(PID.TID 0000.0001) >  fields(53,1) = 'TRAC53  ',
(PID.TID 0000.0001) >  fields(54,1) = 'TRAC54  ',
(PID.TID 0000.0001) >  fields(55,1) = 'TRAC55  ',
(PID.TID 0000.0001) >  fields(56,1) = 'TRAC56  ',
(PID.TID 0000.0001) >  fields(57,1) = 'TRAC57  ',
(PID.TID 0000.0001) >  fields(58,1) = 'TRAC58  ',
(PID.TID 0000.0001) >  fields(59,1) = 'TRAC59  ',
(PID.TID 0000.0001) >  fields(60,1) = 'TRAC60  ',
(PID.TID 0000.0001) >  fields(61,1) = 'TRAC61  ',
(PID.TID 0000.0001) >  fields(62,1) = 'TRAC62  ',
(PID.TID 0000.0001) >  fields(63,1) = 'TRAC63  ',
(PID.TID 0000.0001) >  fields(64,1) = 'TRAC64  ',
(PID.TID 0000.0001) >  fields(65,1) = 'TRAC65  ',
(PID.TID 0000.0001) >  fields(66,1) = 'TRAC66  ',
(PID.TID 0000.0001) >  fields(67,1) = 'TRAC67  ',
(PID.TID 0000.0001) >  fields(68,1) = 'TRAC68  ',
(PID.TID 0000.0001) >  fields(69,1) = 'TRAC69  ',
(PID.TID 0000.0001) >  fields(70,1) = 'TRAC70  ',
(PID.TID 0000.0001) >  fields(71,1) = 'TRAC71  ',
(PID.TID 0000.0001) >  fields(72,1) = 'TRAC72  ',
(PID.TID 0000.0001) >  fields(73,1) = 'TRAC73  ',
(PID.TID 0000.0001) >  fields(74,1) = 'TRAC74  ',
(PID.TID 0000.0001) >  fields(75,1) = 'TRAC75  ',
(PID.TID 0000.0001) >  fields(76,1) = 'TRAC76  ',
(PID.TID 0000.0001) >  fields(77,1) = 'TRAC77  ',
(PID.TID 0000.0001) >  fields(78,1) = 'TRAC78  ',
(PID.TID 0000.0001) >  fields(79,1) = 'TRAC79  ',
(PID.TID 0000.0001) >  fields(80,1) = 'TRAC80  ',
(PID.TID 0000.0001) >  fields(81,1) = 'TRAC81  ',
(PID.TID 0000.0001) >  fields(82,1) = 'TRAC82  ',
(PID.TID 0000.0001) >  fields(83,1) = 'TRAC83  ',
(PID.TID 0000.0001) >  fields(84,1) = 'TRAC84  ',
(PID.TID 0000.0001) >  fields(85,1) = 'TRAC85  ',
(PID.TID 0000.0001) >  fields(86,1) = 'TRAC86  ',
(PID.TID 0000.0001) >  fields(87,1) = 'TRAC87  ',
(PID.TID 0000.0001) >  fields(88,1) = 'TRAC88  ',
(PID.TID 0000.0001) >  fields(89,1) = 'TRAC89  ',
(PID.TID 0000.0001) >  fields(90,1) = 'TRAC90  ',
(PID.TID 0000.0001) >  fields(91,1) = 'TRAC91  ',
(PID.TID 0000.0001) >  fields(92,1) = 'TRAC92  ',
(PID.TID 0000.0001) >  fields(93,1) = 'TRAC93  ',
(PID.TID 0000.0001) >  fields(94,1) = 'TRAC94  ',
(PID.TID 0000.0001) >  fields(95,1) = 'TRAC95  ',
(PID.TID 0000.0001) >  fields(96,1) = 'TRAC96  ',
(PID.TID 0000.0001) >  fields(97,1) = 'TRAC97  ',
(PID.TID 0000.0001) >  fields(98,1) = 'TRAC98  ',
(PID.TID 0000.0001) >    filename(1) = 'gud',
(PID.TID 0000.0001) >#
(PID.TID 0000.0001) > /
(PID.TID 0000.0001) >
(PID.TID 0000.0001) ># Parameter for Diagnostics of per level statistics:
(PID.TID 0000.0001) >#-----------------
(PID.TID 0000.0001) ># for each output-stream:
(PID.TID 0000.0001) >#  stat_fname(n) : prefix of the output file name (only 8.c long) for
(PID.TID 0000.0001) >#outp.stream n
(PID.TID 0000.0001) >#  stat_freq(n):< 0 : write snap-shot output every |stat_freq| seconds
(PID.TID 0000.0001) >#               > 0 : write time-average output every stat_freq seconds
(PID.TID 0000.0001) >#  stat_phase(n)    : write at time = stat_phase + multiple of |stat_freq|
(PID.TID 0000.0001) >#  stat_region(:,n) : list of "regions" (default: 1 region only=global)
(PID.TID 0000.0001) >#  stat_fields(:,n) : list of diagnostics fields (8.c) (see
(PID.TID 0000.0001) >#"available_diagnostics.log"
(PID.TID 0000.0001) >#                 file for the list of all available diag. in this particular
(PID.TID 0000.0001) >#config)
(PID.TID 0000.0001) >#-----------------
(PID.TID 0000.0001) > &DIAG_STATIS_PARMS
(PID.TID 0000.0001) > diagst_mnc=.FALSE.,
(PID.TID 0000.0001) >#     stat_freq(1:21)= 21*3600.,
(PID.TID 0000.0001) >#    stat_phase(1:21)= 21*0.,
(PID.TID 0000.0001) ># stat_fields(1,1)= 'TRAC01  '
(PID.TID 0000.0001) ># stat_fields(1,2)= 'TRAC02  '
(PID.TID 0000.0001) ># stat_fields(1,3)= 'TRAC03  '
(PID.TID 0000.0001) ># stat_fields(1,4)= 'TRAC04  '
(PID.TID 0000.0001) ># stat_fields(1,5)= 'TRAC05  '
(PID.TID 0000.0001) ># stat_fields(1,6)= 'TRAC06  '
(PID.TID 0000.0001) ># stat_fields(1,7)= 'TRAC07  '
(PID.TID 0000.0001) ># stat_fields(1,8)= 'TRAC08  '
(PID.TID 0000.0001) ># stat_fields(1,9)= 'TRAC09  '
(PID.TID 0000.0001) ># stat_fields(1,10)= 'TRAC10  '
(PID.TID 0000.0001) ># stat_fields(1,11)= 'TRAC11  '
(PID.TID 0000.0001) ># stat_fields(1,12)= 'TRAC12  '
(PID.TID 0000.0001) ># stat_fields(1,13)= 'TRAC13  '
(PID.TID 0000.0001) ># stat_fields(1,14)= 'TRAC14  '
(PID.TID 0000.0001) ># stat_fields(1,15)= 'TRAC15  '
(PID.TID 0000.0001) ># stat_fields(1,16)= 'TRAC16  '
(PID.TID 0000.0001) ># stat_fields(1,17)= 'TRAC17  '
(PID.TID 0000.0001) ># stat_fields(1,18)= 'TRAC18  '
(PID.TID 0000.0001) ># stat_fields(1,19)= 'TRAC19  '
(PID.TID 0000.0001) ># stat_fields(1,20)= 'TRAC20  '
(PID.TID 0000.0001) ># stat_fields(1,21)= 'TRAC21  '
(PID.TID 0000.0001) >#    stat_fname(1)= 'stats/DIC',
(PID.TID 0000.0001) >#    stat_fname(2)= 'stats/NH4',
(PID.TID 0000.0001) >#    stat_fname(3)= 'stats/NO2',
(PID.TID 0000.0001) >#    stat_fname(4)= 'stats/NO3',
(PID.TID 0000.0001) >#    stat_fname(5)= 'stats/PO4',
(PID.TID 0000.0001) >#    stat_fname(6)= 'stats/SiO2',
(PID.TID 0000.0001) >#    stat_fname(7)= 'stats/FeT',
(PID.TID 0000.0001) >#    stat_fname(8)= 'stats/DOC',
(PID.TID 0000.0001) >#    stat_fname(9)= 'stats/DON',
(PID.TID 0000.0001) >#    stat_fname(10)= 'stats/DOP',
(PID.TID 0000.0001) >#    stat_fname(11)= 'stats/DOFe',
(PID.TID 0000.0001) >#    stat_fname(12)= 'stats/POC',
(PID.TID 0000.0001) >#    stat_fname(13)= 'stats/PON',
(PID.TID 0000.0001) >#    stat_fname(14)= 'stats/POP',
(PID.TID 0000.0001) >#    stat_fname(15)= 'stats/POSi',
(PID.TID 0000.0001) >#    stat_fname(16)= 'stats/POFe',
(PID.TID 0000.0001) >#    stat_fname(17)= 'stats/PIC',
(PID.TID 0000.0001) >#    stat_fname(18)= 'stats/c1',
(PID.TID 0000.0001) >#    stat_fname(19)= 'stats/c2',
(PID.TID 0000.0001) >#    stat_fname(20)= 'stats/c3',
(PID.TID 0000.0001) >#    stat_fname(21)= 'stats/c4',
(PID.TID 0000.0001) > /
(PID.TID 0000.0001) 
(PID.TID 0000.0001) S/R DIAGNOSTICS_READPARMS, read namelist "diagnostics_list": start
(PID.TID 0000.0001) S/R DIAGNOSTICS_READPARMS, read namelist "diagnostics_list": OK
(PID.TID 0000.0001) S/R DIAGNOSTICS_READPARMS, read namelist "DIAG_STATIS_PARMS": start
(PID.TID 0000.0001) S/R DIAGNOSTICS_READPARMS, read namelist "DIAG_STATIS_PARMS": OK
(PID.TID 0000.0001)  DIAGNOSTICS_READPARMS: global parameter summary:
(PID.TID 0000.0001)  dumpAtLast = /* always write time-ave diags at the end */
(PID.TID 0000.0001)                   F
(PID.TID 0000.0001)     ;
(PID.TID 0000.0001)  diag_mnc =   /* write NetCDF output files */
(PID.TID 0000.0001)                   T
(PID.TID 0000.0001)     ;
(PID.TID 0000.0001)  useMissingValue = /* put MissingValue where mask = 0 */
(PID.TID 0000.0001)                   F
(PID.TID 0000.0001)     ;
(PID.TID 0000.0001)  diagCG_maxIters = /* max number of iters in diag_cg2d */
(PID.TID 0000.0001)                     300
(PID.TID 0000.0001)     ;
(PID.TID 0000.0001)  diagCG_resTarget = /* residual target for diag_cg2d */
(PID.TID 0000.0001)                 1.000000000000000E-07
(PID.TID 0000.0001)     ;
(PID.TID 0000.0001)  diagCG_pcOffDFac = /* preconditioner off-diagonal factor */
(PID.TID 0000.0001)                 9.611687812379854E-01
(PID.TID 0000.0001)     ;
(PID.TID 0000.0001) -----------------------------------------------------
(PID.TID 0000.0001)  DIAGNOSTICS_READPARMS: active diagnostics summary:
(PID.TID 0000.0001) -----------------------------------------------------
(PID.TID 0000.0001) Creating Output Stream: gud
(PID.TID 0000.0001) Output Frequency:       3600.000000 ; Phase:           0.000000
(PID.TID 0000.0001)  Averaging Freq.:       3600.000000 , Phase:           0.000000 , Cycle:   1
(PID.TID 0000.0001)  missing value: -9.990000000000E+02
(PID.TID 0000.0001)  Levels:    will be set later
(PID.TID 0000.0001)  Fields:    TRAC01   TRAC02   TRAC03   TRAC04   TRAC05   TRAC06   TRAC07   TRAC08   TRAC09   TRAC10
(PID.TID 0000.0001)  Fields:    TRAC11   TRAC12   TRAC13   TRAC14   TRAC15   TRAC16   TRAC17   TRAC18   TRAC19   TRAC20
(PID.TID 0000.0001)  Fields:    TRAC21   TRAC22   TRAC23   TRAC24   TRAC25   TRAC26   TRAC27   TRAC28   TRAC29   TRAC30
(PID.TID 0000.0001)  Fields:    TRAC31   TRAC32   TRAC33   TRAC34   TRAC35   TRAC36   TRAC37   TRAC38   TRAC39   TRAC40
(PID.TID 0000.0001)  Fields:    TRAC41   TRAC42   TRAC43   TRAC44   TRAC45   TRAC46   TRAC47   TRAC48   TRAC49   TRAC50
(PID.TID 0000.0001)  Fields:    TRAC51   TRAC52   TRAC53   TRAC54   TRAC55   TRAC56   TRAC57   TRAC58   TRAC59   TRAC60
(PID.TID 0000.0001)  Fields:    TRAC61   TRAC62   TRAC63   TRAC64   TRAC65   TRAC66   TRAC67   TRAC68   TRAC69   TRAC70
(PID.TID 0000.0001)  Fields:    TRAC71   TRAC72   TRAC73   TRAC74   TRAC75   TRAC76   TRAC77   TRAC78   TRAC79   TRAC80
(PID.TID 0000.0001)  Fields:    TRAC81   TRAC82   TRAC83   TRAC84   TRAC85   TRAC86   TRAC87   TRAC88   TRAC89   TRAC90
(PID.TID 0000.0001)  Fields:    TRAC91   TRAC92   TRAC93   TRAC94   TRAC95   TRAC96   TRAC97   TRAC98
(PID.TID 0000.0001) -----------------------------------------------------
(PID.TID 0000.0001)  DIAGNOSTICS_READPARMS: statistics diags. summary:
(PID.TID 0000.0001) -----------------------------------------------------
(PID.TID 0000.0001) 
(PID.TID 0000.0001) SET_PARMS: done
(PID.TID 0000.0001) Enter INI_VERTICAL_GRID: setInterFDr=    T ; setCenterDr=    F
(PID.TID 0000.0001) %MON XC_max                       =   3.3550000000000E+02
(PID.TID 0000.0001) %MON XC_min                       =   3.3550000000000E+02
(PID.TID 0000.0001) %MON XC_mean                      =   3.3550000000000E+02
(PID.TID 0000.0001) %MON XC_sd                        =   0.0000000000000E+00
(PID.TID 0000.0001) %MON XG_max                       =   3.3500000000000E+02
(PID.TID 0000.0001) %MON XG_min                       =   3.3500000000000E+02
(PID.TID 0000.0001) %MON XG_mean                      =   3.3500000000000E+02
(PID.TID 0000.0001) %MON XG_sd                        =   0.0000000000000E+00
(PID.TID 0000.0001) %MON DXC_max                      =   1.0603184087720E+05
(PID.TID 0000.0001) %MON DXC_min                      =   1.0603184087720E+05
(PID.TID 0000.0001) %MON DXC_mean                     =   1.0603184087720E+05
(PID.TID 0000.0001) %MON DXC_sd                       =   0.0000000000000E+00
(PID.TID 0000.0001) %MON DXF_max                      =   1.0603184087720E+05
(PID.TID 0000.0001) %MON DXF_min                      =   1.0603184087720E+05
(PID.TID 0000.0001) %MON DXF_mean                     =   1.0603184087720E+05
(PID.TID 0000.0001) %MON DXF_sd                       =   0.0000000000000E+00
(PID.TID 0000.0001) %MON DXG_max                      =   1.0573606049669E+05
(PID.TID 0000.0001) %MON DXG_min                      =   1.0573606049669E+05
(PID.TID 0000.0001) %MON DXG_mean                     =   1.0573606049669E+05
(PID.TID 0000.0001) %MON DXG_sd                       =   0.0000000000000E+00
(PID.TID 0000.0001) %MON DXV_max                      =   1.0573606049669E+05
(PID.TID 0000.0001) %MON DXV_min                      =   1.0573606049669E+05
(PID.TID 0000.0001) %MON DXV_mean                     =   1.0573606049669E+05
(PID.TID 0000.0001) %MON DXV_sd                       =   0.0000000000000E+00
(PID.TID 0000.0001) %MON YC_max                       =  -1.7500000000000E+01
(PID.TID 0000.0001) %MON YC_min                       =  -1.7500000000000E+01
(PID.TID 0000.0001) %MON YC_mean                      =  -1.7500000000000E+01
(PID.TID 0000.0001) %MON YC_sd                        =   0.0000000000000E+00
(PID.TID 0000.0001) %MON YG_max                       =  -1.8000000000000E+01
(PID.TID 0000.0001) %MON YG_min                       =  -1.8000000000000E+01
(PID.TID 0000.0001) %MON YG_mean                      =  -1.8000000000000E+01
(PID.TID 0000.0001) %MON YG_sd                        =   0.0000000000000E+00
(PID.TID 0000.0001) %MON DYC_max                      =   1.1117747335204E+05
(PID.TID 0000.0001) %MON DYC_min                      =   1.1117747335204E+05
(PID.TID 0000.0001) %MON DYC_mean                     =   1.1117747335204E+05
(PID.TID 0000.0001) %MON DYC_sd                       =   0.0000000000000E+00
(PID.TID 0000.0001) %MON DYF_max                      =   1.1117747335204E+05
(PID.TID 0000.0001) %MON DYF_min                      =   1.1117747335204E+05
(PID.TID 0000.0001) %MON DYF_mean                     =   1.1117747335204E+05
(PID.TID 0000.0001) %MON DYF_sd                       =   0.0000000000000E+00
(PID.TID 0000.0001) %MON DYG_max                      =   1.1117747335204E+05
(PID.TID 0000.0001) %MON DYG_min                      =   1.1117747335204E+05
(PID.TID 0000.0001) %MON DYG_mean                     =   1.1117747335204E+05
(PID.TID 0000.0001) %MON DYG_sd                       =   0.0000000000000E+00
(PID.TID 0000.0001) %MON DYU_max                      =   1.1117747335204E+05
(PID.TID 0000.0001) %MON DYU_min                      =   1.1117747335204E+05
(PID.TID 0000.0001) %MON DYU_mean                     =   1.1117747335204E+05
(PID.TID 0000.0001) %MON DYU_sd                       =   0.0000000000000E+00
(PID.TID 0000.0001) %MON RA_max                       =   1.1788202541770E+10
(PID.TID 0000.0001) %MON RA_min                       =   1.1788202541770E+10
(PID.TID 0000.0001) %MON RA_mean                      =   1.1788202541770E+10
(PID.TID 0000.0001) %MON RA_sd                        =   0.0000000000000E+00
(PID.TID 0000.0001) %MON RAW_max                      =   1.1788202541770E+10
(PID.TID 0000.0001) %MON RAW_min                      =   1.1788202541770E+10
(PID.TID 0000.0001) %MON RAW_mean                     =   1.1788202541770E+10
(PID.TID 0000.0001) %MON RAW_sd                       =   0.0000000000000E+00
(PID.TID 0000.0001) %MON RAS_max                      =   1.1755318843774E+10
(PID.TID 0000.0001) %MON RAS_min                      =   1.1755318843774E+10
(PID.TID 0000.0001) %MON RAS_mean                     =   1.1755318843774E+10
(PID.TID 0000.0001) %MON RAS_sd                       =   0.0000000000000E+00
(PID.TID 0000.0001) %MON RAZ_max                      =   1.1755318843774E+10
(PID.TID 0000.0001) %MON RAZ_min                      =   1.1755318843774E+10
(PID.TID 0000.0001) %MON RAZ_mean                     =   1.1755318843774E+10
(PID.TID 0000.0001) %MON RAZ_sd                       =   0.0000000000000E+00
(PID.TID 0000.0001) %MON AngleCS_max                  =   1.0000000000000E+00
(PID.TID 0000.0001) %MON AngleCS_min                  =   1.0000000000000E+00
(PID.TID 0000.0001) %MON AngleCS_mean                 =   1.0000000000000E+00
(PID.TID 0000.0001) %MON AngleCS_sd                   =   0.0000000000000E+00
(PID.TID 0000.0001) %MON AngleSN_max                  =   0.0000000000000E+00
(PID.TID 0000.0001) %MON AngleSN_min                  =   0.0000000000000E+00
(PID.TID 0000.0001) %MON AngleSN_mean                 =   0.0000000000000E+00
(PID.TID 0000.0001) %MON AngleSN_sd                   =   0.0000000000000E+00
(PID.TID 0000.0001)  MDS_READ_FIELD: opening global file: ../input/input/bathyneg.bin
(PID.TID 0000.0001) // =======================================================
(PID.TID 0000.0001) // Field Model R_low (ini_masks_etc)
(PID.TID 0000.0001) // CMIN =         -3.495000000000000E+03
(PID.TID 0000.0001) // CMAX =         -3.495000000000000E+03
(PID.TID 0000.0001) // CINT =          0.000000000000000E+00
(PID.TID 0000.0001) // SYMBOLS (CMIN->CMAX): -abcdefghijklmnopqrstuvwxyz+
(PID.TID 0000.0001) //                  0.0: .
(PID.TID 0000.0001) // RANGE I (Lo:Hi:Step):(    -1:     3:     1)
(PID.TID 0000.0001) // RANGE J (Lo:Hi:Step):(     3:    -1:    -1)
(PID.TID 0000.0001) // RANGE K (Lo:Hi:Step):(   1:   1:   1)
(PID.TID 0000.0001) // =======================================================
(PID.TID 0000.0001) // =======================================================
(PID.TID 0000.0001) // END OF FIELD                                          =
(PID.TID 0000.0001) // =======================================================
(PID.TID 0000.0001) 
(PID.TID 0000.0001) // =======================================================
(PID.TID 0000.0001) // Field Model Ro_surf (ini_masks_etc)
(PID.TID 0000.0001) // CMIN =          1.000000000000000E+32
(PID.TID 0000.0001) // CMAX =         -1.000000000000000E+32
(PID.TID 0000.0001) // CINT =          0.000000000000000E+00
(PID.TID 0000.0001) // SYMBOLS (CMIN->CMAX): -abcdefghijklmnopqrstuvwxyz+
(PID.TID 0000.0001) //                  0.0: .
(PID.TID 0000.0001) // RANGE I (Lo:Hi:Step):(    -1:     3:     1)
(PID.TID 0000.0001) // RANGE J (Lo:Hi:Step):(     3:    -1:    -1)
(PID.TID 0000.0001) // RANGE K (Lo:Hi:Step):(   1:   1:   1)
(PID.TID 0000.0001) // =======================================================
(PID.TID 0000.0001) // =======================================================
(PID.TID 0000.0001) // END OF FIELD                                          =
(PID.TID 0000.0001) // =======================================================
(PID.TID 0000.0001) 
(PID.TID 0000.0001) // =======================================================
(PID.TID 0000.0001) // Field hFacC at iteration          0
(PID.TID 0000.0001) // CMIN =          1.000000000000000E+00
(PID.TID 0000.0001) // CMAX =          1.000000000000000E+00
(PID.TID 0000.0001) // CINT =          0.000000000000000E+00
(PID.TID 0000.0001) // SYMBOLS (CMIN->CMAX): -abcdefghijklmnopqrstuvwxyz+
(PID.TID 0000.0001) //                  0.0: .
(PID.TID 0000.0001) // RANGE I (Lo:Hi:Step):(    -1:     3:     1)
(PID.TID 0000.0001) // RANGE J (Lo:Hi:Step):(     3:    -1:    -1)
(PID.TID 0000.0001) // RANGE K (Lo:Hi:Step):(   1:   1:   1)
(PID.TID 0000.0001) // =======================================================
(PID.TID 0000.0001) // =======================================================
(PID.TID 0000.0001) // END OF FIELD                                          =
(PID.TID 0000.0001) // =======================================================
(PID.TID 0000.0001) 
(PID.TID 0000.0001) // =======================================================
(PID.TID 0000.0001) // Field hFacW at iteration          0
(PID.TID 0000.0001) // CMIN =          1.000000000000000E+00
(PID.TID 0000.0001) // CMAX =          1.000000000000000E+00
(PID.TID 0000.0001) // CINT =          0.000000000000000E+00
(PID.TID 0000.0001) // SYMBOLS (CMIN->CMAX): -abcdefghijklmnopqrstuvwxyz+
(PID.TID 0000.0001) //                  0.0: .
(PID.TID 0000.0001) // RANGE I (Lo:Hi:Step):(    -1:     3:     1)
(PID.TID 0000.0001) // RANGE J (Lo:Hi:Step):(     3:    -1:    -1)
(PID.TID 0000.0001) // RANGE K (Lo:Hi:Step):(   1:   1:   1)
(PID.TID 0000.0001) // =======================================================
(PID.TID 0000.0001) // =======================================================
(PID.TID 0000.0001) // END OF FIELD                                          =
(PID.TID 0000.0001) // =======================================================
(PID.TID 0000.0001) 
(PID.TID 0000.0001) // =======================================================
(PID.TID 0000.0001) // Field hFacS at iteration          0
(PID.TID 0000.0001) // CMIN =          1.000000000000000E+00
(PID.TID 0000.0001) // CMAX =          1.000000000000000E+00
(PID.TID 0000.0001) // CINT =          0.000000000000000E+00
(PID.TID 0000.0001) // SYMBOLS (CMIN->CMAX): -abcdefghijklmnopqrstuvwxyz+
(PID.TID 0000.0001) //                  0.0: .
(PID.TID 0000.0001) // RANGE I (Lo:Hi:Step):(    -1:     3:     1)
(PID.TID 0000.0001) // RANGE J (Lo:Hi:Step):(     3:    -1:    -1)
(PID.TID 0000.0001) // RANGE K (Lo:Hi:Step):(   1:   1:   1)
(PID.TID 0000.0001) // =======================================================
(PID.TID 0000.0001) // =======================================================
(PID.TID 0000.0001) // END OF FIELD                                          =
(PID.TID 0000.0001) // =======================================================
(PID.TID 0000.0001) 
(PID.TID 0000.0001) 
(PID.TID 0000.0001) // =======================================================
(PID.TID 0000.0001) // Calendar configuration >>> START <<<
(PID.TID 0000.0001) // =======================================================
(PID.TID 0000.0001) 
(PID.TID 0000.0001) modelstart = /* Start time of the model integration [s] */
(PID.TID 0000.0001)                 0.000000000000000E+00
(PID.TID 0000.0001)     ;
(PID.TID 0000.0001) modelend  = /* End time of the model integration [s] */
(PID.TID 0000.0001)                 1.440000000000000E+04
(PID.TID 0000.0001)     ;
(PID.TID 0000.0001) modelStep = /* Time interval for a model forward step [s] */
(PID.TID 0000.0001)                 3.600000000000000E+03
(PID.TID 0000.0001)     ;
(PID.TID 0000.0001) usingGregorianCalendar= /* Calendar Type: Gregorian Calendar */
(PID.TID 0000.0001)                   F
(PID.TID 0000.0001)     ;
(PID.TID 0000.0001) usingJulianCalendar = /* Calendar Type: Julian Calendar */
(PID.TID 0000.0001)                   F
(PID.TID 0000.0001)     ;
(PID.TID 0000.0001) usingNoLeapYearCal  = /* Calendar Type: without Leap Year */
(PID.TID 0000.0001)                   F
(PID.TID 0000.0001)     ;
(PID.TID 0000.0001) usingModelCalendar  = /* Calendar Type: Model Calendar */
(PID.TID 0000.0001)                   T
(PID.TID 0000.0001)     ;
(PID.TID 0000.0001) modelStartDate YYYYMMDD = /* Model start date YYYY-MM-DD */
(PID.TID 0000.0001)                19920101
(PID.TID 0000.0001)     ;
(PID.TID 0000.0001)   modelStartDate HHMMSS = /* Model start date HH-MM-SS  */
(PID.TID 0000.0001)                       0
(PID.TID 0000.0001)     ;
(PID.TID 0000.0001) modelEndDate   YYYYMMDD = /* Model end date YYYY-MM-DD */
(PID.TID 0000.0001)                19920101
(PID.TID 0000.0001)     ;
(PID.TID 0000.0001)   modelEndDate   HHMMSS = /* Model end date HH-MM-SS  */
(PID.TID 0000.0001)                   40000
(PID.TID 0000.0001)     ;
(PID.TID 0000.0001) intyears = /* Number of calendar years affected by the integration */
(PID.TID 0000.0001)                       1
(PID.TID 0000.0001)     ;
(PID.TID 0000.0001) intmonths= /* Number of calendar months affected by the integration */
(PID.TID 0000.0001)                       1
(PID.TID 0000.0001)     ;
(PID.TID 0000.0001) intdays = /* Number of calendar days affected by the integration */
(PID.TID 0000.0001)                       1
(PID.TID 0000.0001)     ;
(PID.TID 0000.0001) modelIter0 = /* Base timestep number  */
(PID.TID 0000.0001)                       0
(PID.TID 0000.0001)     ;
(PID.TID 0000.0001) modelIterEnd = /* Final timestep number  */
(PID.TID 0000.0001)                       4
(PID.TID 0000.0001)     ;
(PID.TID 0000.0001) modelIntSteps= /* Number of model timesteps  */
(PID.TID 0000.0001)                       4
(PID.TID 0000.0001)     ;
(PID.TID 0000.0001) 
[...]
 Computing Diagnostic #    625  TRAC38       Counter:       1   Parms: SMR     MR      
 Computing Diagnostic #    638  TRAC39       Counter:       1   Parms: SMR     MR      
 Computing Diagnostic #    651  TRAC40       Counter:       1   Parms: SMR     MR      
 Computing Diagnostic #    664  TRAC41       Counter:       1   Parms: SMR     MR      
 Computing Diagnostic #    677  TRAC42       Counter:       1   Parms: SMR     MR      
 Computing Diagnostic #    690  TRAC43       Counter:       1   Parms: SMR     MR      
 Computing Diagnostic #    703  TRAC44       Counter:       1   Parms: SMR     MR      
 Computing Diagnostic #    716  TRAC45       Counter:       1   Parms: SMR     MR      
 Computing Diagnostic #    729  TRAC46       Counter:       1   Parms: SMR     MR      
 Computing Diagnostic #    742  TRAC47       Counter:       1   Parms: SMR     MR      
 Computing Diagnostic #    755  TRAC48       Counter:       1   Parms: SMR     MR      
 Computing Diagnostic #    768  TRAC49       Counter:       1   Parms: SMR     MR      
 Computing Diagnostic #    781  TRAC50       Counter:       1   Parms: SMR     MR      
 Computing Diagnostic #    794  TRAC51       Counter:       1   Parms: SMR     MR      
 Computing Diagnostic #    807  TRAC52       Counter:       1   Parms: SMR     MR      
 Computing Diagnostic #    820  TRAC53       Counter:       1   Parms: SMR     MR      
 Computing Diagnostic #    833  TRAC54       Counter:       1   Parms: SMR     MR      
 Computing Diagnostic #    846  TRAC55       Counter:       1   Parms: SMR     MR      
 Computing Diagnostic #    859  TRAC56       Counter:       1   Parms: SMR     MR      
 Computing Diagnostic #    872  TRAC57       Counter:       1   Parms: SMR     MR      
 Computing Diagnostic #    885  TRAC58       Counter:       1   Parms: SMR     MR      
 Computing Diagnostic #    898  TRAC59       Counter:       1   Parms: SMR     MR      
 Computing Diagnostic #    911  TRAC60       Counter:       1   Parms: SMR     MR      
 Computing Diagnostic #    924  TRAC61       Counter:       1   Parms: SMR     MR      
 Computing Diagnostic #    937  TRAC62       Counter:       1   Parms: SMR     MR      
 Computing Diagnostic #    950  TRAC63       Counter:       1   Parms: SMR     MR      
 Computing Diagnostic #    963  TRAC64       Counter:       1   Parms: SMR     MR      
 Computing Diagnostic #    976  TRAC65       Counter:       1   Parms: SMR     MR      
 Computing Diagnostic #    989  TRAC66       Counter:       1   Parms: SMR     MR      
 Computing Diagnostic #   1002  TRAC67       Counter:       1   Parms: SMR     MR      
 Computing Diagnostic #   1015  TRAC68       Counter:       1   Parms: SMR     MR      
 Computing Diagnostic #   1028  TRAC69       Counter:       1   Parms: SMR     MR      
 Computing Diagnostic #   1041  TRAC70       Counter:       1   Parms: SMR     MR      
 Computing Diagnostic #   1054  TRAC71       Counter:       1   Parms: SMR     MR      
 Computing Diagnostic #   1067  TRAC72       Counter:       1   Parms: SMR     MR      
 Computing Diagnostic #   1080  TRAC73       Counter:       1   Parms: SMR     MR      
 Computing Diagnostic #   1093  TRAC74       Counter:       1   Parms: SMR     MR      
 Computing Diagnostic #   1106  TRAC75       Counter:       1   Parms: SMR     MR      
 Computing Diagnostic #   1119  TRAC76       Counter:       1   Parms: SMR     MR      
 Computing Diagnostic #   1132  TRAC77       Counter:       1   Parms: SMR     MR      
 Computing Diagnostic #   1145  TRAC78       Counter:       1   Parms: SMR     MR      
 Computing Diagnostic #   1158  TRAC79       Counter:       1   Parms: SMR     MR      
 Computing Diagnostic #   1171  TRAC80       Counter:       1   Parms: SMR     MR      
 Computing Diagnostic #   1184  TRAC81       Counter:       1   Parms: SMR     MR      
 Computing Diagnostic #   1197  TRAC82       Counter:       1   Parms: SMR     MR      
 Computing Diagnostic #   1210  TRAC83       Counter:       1   Parms: SMR     MR      
 Computing Diagnostic #   1223  TRAC84       Counter:       1   Parms: SMR     MR      
 Computing Diagnostic #   1236  TRAC85       Counter:       1   Parms: SMR     MR      
 Computing Diagnostic #   1249  TRAC86       Counter:       1   Parms: SMR     MR      
 Computing Diagnostic #   1262  TRAC87       Counter:       1   Parms: SMR     MR      
 Computing Diagnostic #   1275  TRAC88       Counter:       1   Parms: SMR     MR      
 Computing Diagnostic #   1288  TRAC89       Counter:       1   Parms: SMR     MR      
 Computing Diagnostic #   1301  TRAC90       Counter:       1   Parms: SMR     MR      
 Computing Diagnostic #   1314  TRAC91       Counter:       1   Parms: SMR     MR      
 Computing Diagnostic #   1327  TRAC92       Counter:       1   Parms: SMR     MR      
 Computing Diagnostic #   1340  TRAC93       Counter:       1   Parms: SMR     MR      
 Computing Diagnostic #   1353  TRAC94       Counter:       1   Parms: SMR     MR      
 Computing Diagnostic #   1366  TRAC95       Counter:       1   Parms: SMR     MR      
 Computing Diagnostic #   1379  TRAC96       Counter:       1   Parms: SMR     MR      
 Computing Diagnostic #   1392  TRAC97       Counter:       1   Parms: SMR     MR      
 Computing Diagnostic #   1405  TRAC98       Counter:       1   Parms: SMR     MR      
 prec          78          64
(PID.TID 0000.0001) %CHECKPOINT         4 ckptA
(PID.TID 0000.0001)   Seconds in section "ALL                    [THE_MODEL_MAIN]":
(PID.TID 0000.0001)           User time:   1.8067249944433570
(PID.TID 0000.0001)         System time:   7.6988003216683865E-002
(PID.TID 0000.0001)     Wall clock time:   1.9667670726776123
(PID.TID 0000.0001)          No. starts:           1
(PID.TID 0000.0001)           No. stops:           1
(PID.TID 0000.0001)   Seconds in section "INITIALISE_FIXED       [THE_MODEL_MAIN]":
(PID.TID 0000.0001)           User time:  0.69189402367919683
(PID.TID 0000.0001)         System time:   1.9996999762952328E-002
(PID.TID 0000.0001)     Wall clock time:  0.72711682319641113
(PID.TID 0000.0001)          No. starts:           1
(PID.TID 0000.0001)           No. stops:           1
(PID.TID 0000.0001)   Seconds in section "THE_MAIN_LOOP          [THE_MODEL_MAIN]":
(PID.TID 0000.0001)           User time:   1.1138309240341187
(PID.TID 0000.0001)         System time:   5.5991999804973602E-002
(PID.TID 0000.0001)     Wall clock time:   1.2361860275268555
(PID.TID 0000.0001)          No. starts:           1
(PID.TID 0000.0001)           No. stops:           1
(PID.TID 0000.0001)   Seconds in section "INITIALISE_VARIA    [THE_MAIN_LOOP]":
(PID.TID 0000.0001)           User time:   6.1990976333618164E-002
(PID.TID 0000.0001)         System time:   1.0997999459505081E-002
(PID.TID 0000.0001)     Wall clock time:   9.0990066528320312E-002
(PID.TID 0000.0001)          No. starts:           1
(PID.TID 0000.0001)           No. stops:           1
(PID.TID 0000.0001)   Seconds in section "MAIN LOOP           [THE_MAIN_LOOP]":
(PID.TID 0000.0001)           User time:   1.0518399477005005
(PID.TID 0000.0001)         System time:   4.4994000345468521E-002
(PID.TID 0000.0001)     Wall clock time:   1.1451699733734131
(PID.TID 0000.0001)          No. starts:           1
(PID.TID 0000.0001)           No. stops:           1
(PID.TID 0000.0001)   Seconds in section "MAIN_DO_LOOP        [THE_MAIN_LOOP]":
(PID.TID 0000.0001)           User time:   1.0518399477005005
(PID.TID 0000.0001)         System time:   4.4994000345468521E-002
(PID.TID 0000.0001)     Wall clock time:   1.1451263427734375
(PID.TID 0000.0001)          No. starts:           4
(PID.TID 0000.0001)           No. stops:           4
(PID.TID 0000.0001)   Seconds in section "FORWARD_STEP        [MAIN_DO_LOOP]":
(PID.TID 0000.0001)           User time:   1.0518399477005005
(PID.TID 0000.0001)         System time:   4.4994000345468521E-002
(PID.TID 0000.0001)     Wall clock time:   1.1450581550598145
(PID.TID 0000.0001)          No. starts:           4
(PID.TID 0000.0001)           No. stops:           4
(PID.TID 0000.0001)   Seconds in section "DO_STATEVARS_DIAGS  [FORWARD_STEP]":
(PID.TID 0000.0001)           User time:   4.0000081062316895E-003
(PID.TID 0000.0001)         System time:   0.0000000000000000
(PID.TID 0000.0001)     Wall clock time:   4.8868656158447266E-003
(PID.TID 0000.0001)          No. starts:           8
(PID.TID 0000.0001)           No. stops:           8
(PID.TID 0000.0001)   Seconds in section "LOAD_FIELDS_DRIVER  [FORWARD_STEP]":
(PID.TID 0000.0001)           User time:   1.0999858379364014E-002
(PID.TID 0000.0001)         System time:   0.0000000000000000
(PID.TID 0000.0001)     Wall clock time:   1.0836362838745117E-002
(PID.TID 0000.0001)          No. starts:           4
(PID.TID 0000.0001)           No. stops:           4
(PID.TID 0000.0001)   Seconds in section "EXF_GETFORCING     [LOAD_FLDS_DRIVER]":
(PID.TID 0000.0001)           User time:   1.9999146461486816E-003
(PID.TID 0000.0001)         System time:   0.0000000000000000
(PID.TID 0000.0001)     Wall clock time:   1.6701221466064453E-003
(PID.TID 0000.0001)          No. starts:           4
(PID.TID 0000.0001)           No. stops:           4
(PID.TID 0000.0001)   Seconds in section "EXTERNAL_FLDS_LOAD [LOAD_FLDS_DRIVER]":
(PID.TID 0000.0001)           User time:   0.0000000000000000
(PID.TID 0000.0001)         System time:   0.0000000000000000
(PID.TID 0000.0001)     Wall clock time:   4.2581558227539062E-004
(PID.TID 0000.0001)          No. starts:           4
(PID.TID 0000.0001)           No. stops:           4
(PID.TID 0000.0001)   Seconds in section "DO_ATMOSPHERIC_PHYS [FORWARD_STEP]":
(PID.TID 0000.0001)           User time:   0.0000000000000000
(PID.TID 0000.0001)         System time:   0.0000000000000000
(PID.TID 0000.0001)     Wall clock time:   3.6001205444335938E-005
(PID.TID 0000.0001)          No. starts:           4
(PID.TID 0000.0001)           No. stops:           4
(PID.TID 0000.0001)   Seconds in section "DO_OCEANIC_PHYS     [FORWARD_STEP]":
(PID.TID 0000.0001)           User time:   9.9897384643554688E-004
(PID.TID 0000.0001)         System time:   0.0000000000000000
(PID.TID 0000.0001)     Wall clock time:   5.3596496582031250E-004
(PID.TID 0000.0001)          No. starts:           4
(PID.TID 0000.0001)           No. stops:           4
(PID.TID 0000.0001)   Seconds in section "GCHEM_CALC_TENDENCY [FORWARD_STEP]":
(PID.TID 0000.0001)           User time:   0.0000000000000000
(PID.TID 0000.0001)         System time:   0.0000000000000000
(PID.TID 0000.0001)     Wall clock time:   3.4809112548828125E-005
(PID.TID 0000.0001)          No. starts:           4
(PID.TID 0000.0001)           No. stops:           4
(PID.TID 0000.0001)   Seconds in section "THERMODYNAMICS      [FORWARD_STEP]":
(PID.TID 0000.0001)           User time:  0.18297314643859863
(PID.TID 0000.0001)         System time:   0.0000000000000000
(PID.TID 0000.0001)     Wall clock time:  0.18404293060302734
(PID.TID 0000.0001)          No. starts:           4
(PID.TID 0000.0001)           No. stops:           4
(PID.TID 0000.0001)   Seconds in section "TRC_CORRECTION_STEP [FORWARD_STEP]":
(PID.TID 0000.0001)           User time:   9.9969506263732910E-003
(PID.TID 0000.0001)         System time:   0.0000000000000000
(PID.TID 0000.0001)     Wall clock time:   9.7968578338623047E-003
(PID.TID 0000.0001)          No. starts:           4
(PID.TID 0000.0001)           No. stops:           4
(PID.TID 0000.0001)   Seconds in section "GCHEM_FORCING_SEP  [FORWARD_STEP]":
(PID.TID 0000.0001)           User time:   2.2997081279754639E-002
(PID.TID 0000.0001)         System time:   0.0000000000000000
(PID.TID 0000.0001)     Wall clock time:   2.2832870483398438E-002
(PID.TID 0000.0001)          No. starts:           4
(PID.TID 0000.0001)           No. stops:           4
(PID.TID 0000.0001)   Seconds in section "GCHEM_DIAGNOSTICS [GCHEM_FORCING_SEP]":
(PID.TID 0000.0001)           User time:   1.9990205764770508E-003
(PID.TID 0000.0001)         System time:   0.0000000000000000
(PID.TID 0000.0001)     Wall clock time:   9.2434883117675781E-004
(PID.TID 0000.0001)          No. starts:           4
(PID.TID 0000.0001)           No. stops:           4
(PID.TID 0000.0001)   Seconds in section "GUD_CONS [GCHEM_FORCING_SEP]":
(PID.TID 0000.0001)           User time:   0.0000000000000000
(PID.TID 0000.0001)         System time:   0.0000000000000000
(PID.TID 0000.0001)     Wall clock time:   6.9618225097656250E-005
(PID.TID 0000.0001)          No. starts:           8
(PID.TID 0000.0001)           No. stops:           8
(PID.TID 0000.0001)   Seconds in section "GUD_FORCING [GCHEM_FORCING_SEP]":
(PID.TID 0000.0001)           User time:   2.0998060703277588E-002
(PID.TID 0000.0001)         System time:   0.0000000000000000
(PID.TID 0000.0001)     Wall clock time:   2.1662950515747070E-002
(PID.TID 0000.0001)          No. starts:           4
(PID.TID 0000.0001)           No. stops:           4
(PID.TID 0000.0001)   Seconds in section "GUD_LIGHT [GUD_FORCING]":
(PID.TID 0000.0001)           User time:   1.0000467300415039E-003
(PID.TID 0000.0001)         System time:   0.0000000000000000
(PID.TID 0000.0001)     Wall clock time:   2.4299621582031250E-003
(PID.TID 0000.0001)          No. starts:           4
(PID.TID 0000.0001)           No. stops:           4
(PID.TID 0000.0001)   Seconds in section "GUD_FE_CHEM [GUD_FORCING]":
(PID.TID 0000.0001)           User time:   0.0000000000000000
(PID.TID 0000.0001)         System time:   0.0000000000000000
(PID.TID 0000.0001)     Wall clock time:   1.1515617370605469E-004
(PID.TID 0000.0001)          No. starts:           8
(PID.TID 0000.0001)           No. stops:           8
(PID.TID 0000.0001)   Seconds in section "GUD_FE_DUST [GUD_FORCING]":
(PID.TID 0000.0001)           User time:   0.0000000000000000
(PID.TID 0000.0001)         System time:   0.0000000000000000
(PID.TID 0000.0001)     Wall clock time:   3.8146972656250000E-005
(PID.TID 0000.0001)          No. starts:           4
(PID.TID 0000.0001)           No. stops:           4
(PID.TID 0000.0001)   Seconds in section "GUD_FE_SCAV [GUD_FORCING]":
(PID.TID 0000.0001)           User time:   0.0000000000000000
(PID.TID 0000.0001)         System time:   0.0000000000000000
(PID.TID 0000.0001)     Wall clock time:   3.7193298339843750E-005
(PID.TID 0000.0001)          No. starts:           4
(PID.TID 0000.0001)           No. stops:           4
(PID.TID 0000.0001)   Seconds in section "GUD_FE_SED [GUD_FORCING]":
(PID.TID 0000.0001)           User time:   0.0000000000000000
(PID.TID 0000.0001)         System time:   0.0000000000000000
(PID.TID 0000.0001)     Wall clock time:   3.4332275390625000E-005
(PID.TID 0000.0001)          No. starts:           4
(PID.TID 0000.0001)           No. stops:           4
(PID.TID 0000.0001)   Seconds in section "GUD_MODEL [GUD_FORCING]":
(PID.TID 0000.0001)           User time:   6.9999098777770996E-003
(PID.TID 0000.0001)         System time:   0.0000000000000000
(PID.TID 0000.0001)     Wall clock time:   6.8380832672119141E-003
(PID.TID 0000.0001)          No. starts:           4
(PID.TID 0000.0001)           No. stops:           4
(PID.TID 0000.0001)   Seconds in section "GUD_SINKING [GUD_FORCING]":
(PID.TID 0000.0001)           User time:   1.1998116970062256E-002
(PID.TID 0000.0001)         System time:   0.0000000000000000
(PID.TID 0000.0001)     Wall clock time:   1.0787248611450195E-002
(PID.TID 0000.0001)          No. starts:           4
(PID.TID 0000.0001)           No. stops:           4
(PID.TID 0000.0001)   Seconds in section "GUD_STEP [GUD_FORCING]":
(PID.TID 0000.0001)           User time:   0.0000000000000000
(PID.TID 0000.0001)         System time:   0.0000000000000000
(PID.TID 0000.0001)     Wall clock time:   2.8586387634277344E-004
(PID.TID 0000.0001)          No. starts:           4
(PID.TID 0000.0001)           No. stops:           4
(PID.TID 0000.0001)   Seconds in section "DIAGS_FILL [GUD_FORCING]":
(PID.TID 0000.0001)           User time:   0.0000000000000000
(PID.TID 0000.0001)         System time:   0.0000000000000000
(PID.TID 0000.0001)     Wall clock time:   1.8405914306640625E-004
(PID.TID 0000.0001)          No. starts:           4
(PID.TID 0000.0001)           No. stops:           4
(PID.TID 0000.0001)   Seconds in section "BLOCKING_EXCHANGES  [FORWARD_STEP]":
(PID.TID 0000.0001)           User time:   8.9980363845825195E-003
(PID.TID 0000.0001)         System time:   0.0000000000000000
(PID.TID 0000.0001)     Wall clock time:   9.0739727020263672E-003
(PID.TID 0000.0001)          No. starts:           4
(PID.TID 0000.0001)           No. stops:           4
(PID.TID 0000.0001)   Seconds in section "DO_STATEVARS_TAVE   [FORWARD_STEP]":
(PID.TID 0000.0001)           User time:   0.0000000000000000
(PID.TID 0000.0001)         System time:   0.0000000000000000
(PID.TID 0000.0001)     Wall clock time:   3.4403800964355469E-004
(PID.TID 0000.0001)          No. starts:           4
(PID.TID 0000.0001)           No. stops:           4
(PID.TID 0000.0001)   Seconds in section "MONITOR             [FORWARD_STEP]":
(PID.TID 0000.0001)           User time:   2.9998421669006348E-003
(PID.TID 0000.0001)         System time:   0.0000000000000000
(PID.TID 0000.0001)     Wall clock time:   2.8162002563476562E-003
(PID.TID 0000.0001)          No. starts:           4
(PID.TID 0000.0001)           No. stops:           4
(PID.TID 0000.0001)   Seconds in section "DO_THE_MODEL_IO     [FORWARD_STEP]":
(PID.TID 0000.0001)           User time:  0.79687815904617310
(PID.TID 0000.0001)         System time:   3.8994003087282181E-002
(PID.TID 0000.0001)     Wall clock time:  0.84291028976440430
(PID.TID 0000.0001)          No. starts:           4
(PID.TID 0000.0001)           No. stops:           4
(PID.TID 0000.0001)   Seconds in section "PTRACERS_RESET      [FORWARD_STEP]":
(PID.TID 0000.0001)           User time:   0.0000000000000000
(PID.TID 0000.0001)         System time:   0.0000000000000000
(PID.TID 0000.0001)     Wall clock time:   3.8146972656250000E-005
(PID.TID 0000.0001)          No. starts:           4
(PID.TID 0000.0001)           No. stops:           4
(PID.TID 0000.0001)   Seconds in section "DO_WRITE_PICKUP     [FORWARD_STEP]":
(PID.TID 0000.0001)           User time:   1.0997891426086426E-002
(PID.TID 0000.0001)         System time:   5.9999972581863403E-003
(PID.TID 0000.0001)     Wall clock time:   5.6293010711669922E-002
(PID.TID 0000.0001)          No. starts:           4
(PID.TID 0000.0001)           No. stops:           4
(PID.TID 0000.0001) // ======================================================
(PID.TID 0000.0001) // Tile <-> Tile communication statistics
(PID.TID 0000.0001) // ======================================================
(PID.TID 0000.0001) // o Tile number: 000001
(PID.TID 0000.0001) //         No. X exchanges =              0
(PID.TID 0000.0001) //            Max. X spins =              0
(PID.TID 0000.0001) //            Min. X spins =     1000000000
(PID.TID 0000.0001) //          Total. X spins =              0
(PID.TID 0000.0001) //            Avg. X spins =       0.00E+00
(PID.TID 0000.0001) //         No. Y exchanges =              0
(PID.TID 0000.0001) //            Max. Y spins =              0
(PID.TID 0000.0001) //            Min. Y spins =     1000000000
(PID.TID 0000.0001) //          Total. Y spins =              0
(PID.TID 0000.0001) //            Avg. Y spins =       0.00E+00
(PID.TID 0000.0001) // o Thread number: 000001
(PID.TID 0000.0001) //            No. barriers =          28622
(PID.TID 0000.0001) //      Max. barrier spins =              1
(PID.TID 0000.0001) //      Min. barrier spins =              1
(PID.TID 0000.0001) //     Total barrier spins =          28622
(PID.TID 0000.0001) //      Avg. barrier spins =       1.00E+00
PROGRAM MAIN: Execution ended Normally
