(PID.TID 0000.0001) %MON XC_max                       =   3.4323280334473E+01
(PID.TID 0000.0001) %MON XC_min                       =   6.2812995910645E+00
(PID.TID 0000.0001) %MON XC_mean                      =   1.8285267813948E+01
(PID.TID 0000.0001) %MON XC_sd                        =   6.3900599945909E+00
(PID.TID 0000.0001) %MON XG_max                       =   3.4363361358643E+01
(PID.TID 0000.0001) %MON XG_min                       =   6.3874454498291E+00
(PID.TID 0000.0001) %MON XG_mean                      =   1.8373648876945E+01
(PID.TID 0000.0001) %MON XG_sd                        =   6.3700484752252E+00
(PID.TID 0000.0001) %MON DXC_max                      =   2.2403076171875E+04
(PID.TID 0000.0001) %MON DXC_min                      =   1.8505916015625E+04
(PID.TID 0000.0001) %MON DXC_mean                     =   2.0203672926875E+04
(PID.TID 0000.0001) %MON DXC_sd                       =   9.5458170268745E+02
(PID.TID 0000.0001) %MON DXF_max                      =   2.2370343750000E+04
(PID.TID 0000.0001) %MON DXF_min                      =   1.8493386718750E+04
(PID.TID 0000.0001) %MON DXF_mean                     =   2.0182404881528E+04
(PID.TID 0000.0001) %MON DXF_sd                       =   9.4946222069420E+02
(PID.TID 0000.0001) %MON DXG_max                      =   2.2367550781250E+04
(PID.TID 0000.0001) %MON DXG_min                      =   1.8487599609375E+04
(PID.TID 0000.0001) %MON DXG_mean                     =   2.0177259786684E+04
(PID.TID 0000.0001) %MON DXG_sd                       =   9.4896516606818E+02
(PID.TID 0000.0001) %MON DXV_max                      =   2.2400273437500E+04
(PID.TID 0000.0001) %MON DXV_min                      =   1.8500103515625E+04
(PID.TID 0000.0001) %MON DXV_mean                     =   2.0198506532189E+04
(PID.TID 0000.0001) %MON DXV_sd                       =   9.5408286863332E+02
(PID.TID 0000.0001) %MON YC_max                       =   6.7494171142578E+01
(PID.TID 0000.0001) %MON YC_min                       =   5.1496150970459E+01
(PID.TID 0000.0001) %MON YC_mean                      =   5.9557142692700E+01
(PID.TID 0000.0001) %MON YC_sd                        =   3.8956559034090E+00
(PID.TID 0000.0001) %MON YG_max                       =   6.7396972656250E+01
(PID.TID 0000.0001) %MON YG_min                       =   5.1380382537842E+01
(PID.TID 0000.0001) %MON YG_mean                      =   5.9448751095443E+01
(PID.TID 0000.0001) %MON YG_sd                        =   3.8981480636126E+00
(PID.TID 0000.0001) %MON DYC_max                      =   1.7253792968750E+04
(PID.TID 0000.0001) %MON DYC_min                      =   1.6167729492188E+04
(PID.TID 0000.0001) %MON DYC_mean                     =   1.6590043869643E+04
(PID.TID 0000.0001) %MON DYC_sd                       =   2.2883025615363E+02
(PID.TID 0000.0001) %MON DYF_max                      =   1.7247535156250E+04
(PID.TID 0000.0001) %MON DYF_min                      =   1.6166898437500E+04
(PID.TID 0000.0001) %MON DYF_mean                     =   1.6587223710623E+04
(PID.TID 0000.0001) %MON DYF_sd                       =   2.2779671061985E+02
(PID.TID 0000.0001) %MON DYG_max                      =   1.7242103515625E+04
(PID.TID 0000.0001) %MON DYG_min                      =   1.6164107421875E+04
(PID.TID 0000.0001) %MON DYG_mean                     =   1.6582914334660E+04
(PID.TID 0000.0001) %MON DYG_sd                       =   2.2730275857504E+02
(PID.TID 0000.0001) %MON DYU_max                      =   1.7248339843750E+04
(PID.TID 0000.0001) %MON DYU_min                      =   1.6164934570312E+04
(PID.TID 0000.0001) %MON DYU_mean                     =   1.6585720694380E+04
(PID.TID 0000.0001) %MON DYU_sd                       =   2.2833267244082E+02
(PID.TID 0000.0001) %MON RA_max                       =   3.6165907200000E+08
(PID.TID 0000.0001) %MON RA_min                       =   3.1759747200000E+08
(PID.TID 0000.0001) %MON RA_mean                      =   3.3456872125731E+08
(PID.TID 0000.0001) %MON RA_sd                        =   1.1547923169063E+07
(PID.TID 0000.0001) %MON RAW_max                      =   3.6212576000000E+08
(PID.TID 0000.0001) %MON RAW_min                      =   3.1777328000000E+08
(PID.TID 0000.0001) %MON RAW_mean                     =   3.3483373194737E+08
(PID.TID 0000.0001) %MON RAW_sd                       =   1.1630830944481E+07
(PID.TID 0000.0001) %MON RAS_max                      =   3.6163251200000E+08
(PID.TID 0000.0001) %MON RAS_min                      =   3.1760160000000E+08
(PID.TID 0000.0001) %MON RAS_mean                     =   3.3453950318129E+08
(PID.TID 0000.0001) %MON RAS_sd                       =   1.1525868078589E+07
(PID.TID 0000.0001) %MON RAZ_max                      =   3.6209897600000E+08
(PID.TID 0000.0001) %MON RAZ_min                      =   3.1777724800000E+08
(PID.TID 0000.0001) %MON RAZ_mean                     =   3.3480396163743E+08
(PID.TID 0000.0001) %MON RAZ_sd                       =   1.1608759740398E+07
(PID.TID 0000.0001) %MON AngleCS_max                  =   5.5429527386920E-01
(PID.TID 0000.0001) %MON AngleCS_min                  =  -9.9944725063759E-01
(PID.TID 0000.0001) %MON AngleCS_mean                 =   2.7438028807017E-01
(PID.TID 0000.0001) %MON AngleCS_sd                   =   1.8420475006332E-01
(PID.TID 0000.0001) %MON AngleSN_max                  =   9.9515176606236E-01
(PID.TID 0000.0001) %MON AngleSN_min                  =  -9.9999853122241E-01
(PID.TID 0000.0001) %MON AngleSN_mean                 =   9.1101249395656E-01
(PID.TID 0000.0001) %MON AngleSN_sd                   =   2.4665827257097E-01
(PID.TID 0000.0001) %MON fCori_max                    =   1.3473519476330E-04
(PID.TID 0000.0001) %MON fCori_min                    =   1.1413140759594E-04
(PID.TID 0000.0001) %MON fCori_mean                   =   1.2544553688214E-04
(PID.TID 0000.0001) %MON fCori_sd                     =   5.0297255000290E-06
(PID.TID 0000.0001) %MON fCoriG_max                   =   1.3464029717915E-04
(PID.TID 0000.0001) %MON fCoriG_min                   =   1.1394771627180E-04
(PID.TID 0000.0001) %MON fCoriG_mean                  =   1.2530547026595E-04
(PID.TID 0000.0001) %MON fCoriG_sd                    =   5.0490402546811E-06
(PID.TID 0000.0001) %MON fCoriCos_max                 =   9.0796739781711E-05
(PID.TID 0000.0001) %MON fCoriCos_min                 =   5.5825204405476E-05
(PID.TID 0000.0001) %MON fCoriCos_mean                =   7.3724492265692E-05
(PID.TID 0000.0001) %MON fCoriCos_sd                  =   8.5349008623744E-06
(PID.TID 0000.0001) %MON time_tsnumber                =                188388
(PID.TID 0000.0001) %MON time_secondsf                =   2.2606560000000E+08
(PID.TID 0000.0001) %MON dynstat_eta_max              =   6.7857206100959E-01
(PID.TID 0000.0001) %MON dynstat_eta_min              =   2.4834525795929E-02
(PID.TID 0000.0001) %MON dynstat_eta_mean             =   3.7231760032402E-01
(PID.TID 0000.0001) %MON dynstat_eta_sd               =   1.5436287975570E-01
(PID.TID 0000.0001) %MON dynstat_eta_del2             =   3.3947822651082E-04
(PID.TID 0000.0001) %MON dynstat_uvel_max             =   4.1043654315727E-01
(PID.TID 0000.0001) %MON dynstat_uvel_min             =  -3.3404372355546E-01
(PID.TID 0000.0001) %MON dynstat_uvel_mean            =   7.2247190886372E-03
(PID.TID 0000.0001) %MON dynstat_uvel_sd              =   6.1628348035588E-02
(PID.TID 0000.0001) %MON dynstat_uvel_del2            =   9.6493604067269E-04
(PID.TID 0000.0001) %MON dynstat_vvel_max             =   2.8285402026493E-01
(PID.TID 0000.0001) %MON dynstat_vvel_min             =  -4.5228332030971E-01
(PID.TID 0000.0001) %MON dynstat_vvel_mean            =   1.9335722007698E-03
(PID.TID 0000.0001) %MON dynstat_vvel_sd              =   6.4592845574376E-02
(PID.TID 0000.0001) %MON dynstat_vvel_del2            =   1.1515551720993E-03
(PID.TID 0000.0001) %MON dynstat_wvel_max             =   4.9575213564628E-04
(PID.TID 0000.0001) %MON dynstat_wvel_min             =  -5.0890006120395E-04
(PID.TID 0000.0001) %MON dynstat_wvel_mean            =  -2.6308567236582E-06
(PID.TID 0000.0001) %MON dynstat_wvel_sd              =   7.5801737004418E-05
(PID.TID 0000.0001) %MON dynstat_wvel_del2            =   2.0446148495701E-06
(PID.TID 0000.0001) %MON dynstat_theta_max            =   7.9698650573136E+00
(PID.TID 0000.0001) %MON dynstat_theta_min            =  -1.6138727636085E+00
(PID.TID 0000.0001) %MON dynstat_theta_mean           =   3.7798105201791E+00
(PID.TID 0000.0001) %MON dynstat_theta_sd             =   2.2019507085376E+00
(PID.TID 0000.0001) %MON dynstat_theta_del2           =   6.0422941678782E-03
(PID.TID 0000.0001) %MON dynstat_salt_max             =   3.4927700428884E+01
(PID.TID 0000.0001) %MON dynstat_salt_min             =   5.6521891769462E+00
(PID.TID 0000.0001) %MON dynstat_salt_mean            =   1.5353356064885E+01
(PID.TID 0000.0001) %MON dynstat_salt_sd              =   1.1951795815059E+01
(PID.TID 0000.0001) %MON dynstat_salt_del2            =   3.5921468721428E-03
(PID.TID 0000.0001) %MON forcing_qnet_max             =   0.0000000000000E+00
(PID.TID 0000.0001) %MON forcing_qnet_min             =   0.0000000000000E+00
(PID.TID 0000.0001) %MON forcing_qnet_mean            =   0.0000000000000E+00
(PID.TID 0000.0001) %MON forcing_qnet_sd              =   0.0000000000000E+00
(PID.TID 0000.0001) %MON forcing_qnet_del2            =   0.0000000000000E+00
(PID.TID 0000.0001) %MON forcing_qsw_max              =   0.0000000000000E+00
(PID.TID 0000.0001) %MON forcing_qsw_min              =   0.0000000000000E+00
(PID.TID 0000.0001) %MON forcing_qsw_mean             =   0.0000000000000E+00
(PID.TID 0000.0001) %MON forcing_qsw_sd               =   0.0000000000000E+00
(PID.TID 0000.0001) %MON forcing_qsw_del2             =   0.0000000000000E+00
(PID.TID 0000.0001) %MON forcing_empmr_max            =   0.0000000000000E+00
(PID.TID 0000.0001) %MON forcing_empmr_min            =   0.0000000000000E+00
(PID.TID 0000.0001) %MON forcing_empmr_mean           =   0.0000000000000E+00
(PID.TID 0000.0001) %MON forcing_empmr_sd             =   0.0000000000000E+00
(PID.TID 0000.0001) %MON forcing_empmr_del2           =   0.0000000000000E+00
(PID.TID 0000.0001) %MON forcing_fu_max               =   0.0000000000000E+00
(PID.TID 0000.0001) %MON forcing_fu_min               =   0.0000000000000E+00
(PID.TID 0000.0001) %MON forcing_fu_mean              =   0.0000000000000E+00
(PID.TID 0000.0001) %MON forcing_fu_sd                =   0.0000000000000E+00
(PID.TID 0000.0001) %MON forcing_fu_del2              =   0.0000000000000E+00
(PID.TID 0000.0001) %MON forcing_fv_max               =   0.0000000000000E+00
(PID.TID 0000.0001) %MON forcing_fv_min               =   0.0000000000000E+00
(PID.TID 0000.0001) %MON forcing_fv_mean              =   0.0000000000000E+00
(PID.TID 0000.0001) %MON forcing_fv_sd                =   0.0000000000000E+00
(PID.TID 0000.0001) %MON forcing_fv_del2              =   0.0000000000000E+00
(PID.TID 0000.0001) %MON advcfl_uvel_max              =   2.3317424706639E-02
(PID.TID 0000.0001) %MON advcfl_vvel_max              =   3.3222803653596E-02
(PID.TID 0000.0001) %MON advcfl_wvel_max              =   5.9490256277553E-02
(PID.TID 0000.0001) %MON advcfl_W_hf_max              =   5.9490256277553E-02
(PID.TID 0000.0001) %MON pe_b_mean                    =   1.3744958230235E-02
(PID.TID 0000.0001) %MON ke_max                       =   1.1199894577682E-01
(PID.TID 0000.0001) %MON ke_mean                      =   3.2427959349814E-03
(PID.TID 0000.0001) %MON ke_vol                       =   2.7634533915294E+13
(PID.TID 0000.0001) %MON vort_r_min                   =  -3.7637061990678E-05
(PID.TID 0000.0001) %MON vort_r_max                   =   3.2699331518938E-05
(PID.TID 0000.0001) %MON vort_a_mean                  =   1.2397138973741E-04
(PID.TID 0000.0001) %MON vort_a_sd                    =   6.2966918177204E-06
(PID.TID 0000.0001) %MON vort_p_mean                  =   1.7325062561132E-04
(PID.TID 0000.0001) %MON vort_p_sd                    =   1.0960208317016E-04
(PID.TID 0000.0001) %MON surfExpan_theta_mean         =  -9.0466029399821E-07
(PID.TID 0000.0001) %MON surfExpan_salt_mean          =   1.2050928594726E-06
(PID.TID 0000.0001) %MON obc_W_uVel_max               =   7.0339930350663E-02
(PID.TID 0000.0001) %MON obc_W_uVel_min               =  -1.2534759400535E-02
(PID.TID 0000.0001) %MON obc_W_uVel_mean              =   2.2514378965596E-02
(PID.TID 0000.0001) %MON obc_W_uVel_sd                =   2.5890103192371E-02
(PID.TID 0000.0001) %MON obc_W_uVel_Int               =   4.7351175925313E+04
(PID.TID 0000.0001) %MON obc_N_vVel_max               =   1.8577546101125E-01
(PID.TID 0000.0001) %MON obc_N_vVel_min               =  -2.5391576023864E-01
(PID.TID 0000.0001) %MON obc_N_vVel_mean              =   1.5193571121082E-03
(PID.TID 0000.0001) %MON obc_N_vVel_sd                =   8.5462048288721E-02
(PID.TID 0000.0001) %MON obc_N_vVel_Int               =   4.7666041382967E+04
(PID.TID 0000.0001) %MON seaice_tsnumber              =                188388
(PID.TID 0000.0001) %MON seaice_time_sec              =   2.2606560000000E+08
(PID.TID 0000.0001) %MON seaice_uice_max              =   4.0000000000000E-01
(PID.TID 0000.0001) %MON seaice_uice_min              =  -2.0818735801076E-01
(PID.TID 0000.0001) %MON seaice_uice_mean             =   1.7135534274810E-01
(PID.TID 0000.0001) %MON seaice_uice_sd               =   1.2732607744758E-01
(PID.TID 0000.0001) %MON seaice_uice_del2             =   2.4397363148550E-03
(PID.TID 0000.0001) %MON seaice_vice_max              =   4.0000000000000E-01
(PID.TID 0000.0001) %MON seaice_vice_min              =  -4.0000000000000E-01
(PID.TID 0000.0001) %MON seaice_vice_mean             =  -8.2298987070637E-02
(PID.TID 0000.0001) %MON seaice_vice_sd               =   1.4565675515411E-01
(PID.TID 0000.0001) %MON seaice_vice_del2             =   2.7744345086973E-03
(PID.TID 0000.0001) %MON seaice_area_max              =   1.0000000000000E+00
(PID.TID 0000.0001) %MON seaice_area_min              =   0.0000000000000E+00
(PID.TID 0000.0001) %MON seaice_area_mean             =   2.2620370416445E-01
(PID.TID 0000.0001) %MON seaice_area_sd               =   3.8531906057260E-01
(PID.TID 0000.0001) %MON seaice_area_del2             =   4.5224430665297E-03
(PID.TID 0000.0001) %MON seaice_heff_max              =   1.0115990757457E+00
(PID.TID 0000.0001) %MON seaice_heff_min              =   0.0000000000000E+00
(PID.TID 0000.0001) %MON seaice_heff_mean             =   1.2507534371604E-01
(PID.TID 0000.0001) %MON seaice_heff_sd               =   2.4312450293485E-01
(PID.TID 0000.0001) %MON seaice_heff_del2             =   2.2409775961535E-03
(PID.TID 0000.0001) %MON seaice_hsnow_max             =   2.7588954944145E-01
(PID.TID 0000.0001) %MON seaice_hsnow_min             =   0.0000000000000E+00
(PID.TID 0000.0001) %MON seaice_hsnow_mean            =   3.0754289927357E-02
(PID.TID 0000.0001) %MON seaice_hsnow_sd              =   6.4155555132779E-02
(PID.TID 0000.0001) %MON seaice_hsnow_del2            =   3.7889157137013E-04
(PID.TID 0000.0001) %MON seaice_sitracer01_max        =   0.0000000000000E+00
(PID.TID 0000.0001) %MON seaice_sitracer01_min        =   0.0000000000000E+00
(PID.TID 0000.0001) %MON seaice_sitracer01_mean       =   0.0000000000000E+00
(PID.TID 0000.0001) %MON seaice_sitracer01_sd         =   0.0000000000000E+00
(PID.TID 0000.0001) %MON seaice_sitracer01_del2       =   0.0000000000000E+00
(PID.TID 0000.0001) %MON seaice_sitracer02_max        =   1.0000000000000E+00
(PID.TID 0000.0001) %MON seaice_sitracer02_min        =   1.0000000000000E+00
(PID.TID 0000.0001) %MON seaice_sitracer02_mean       =   1.0000000000000E+00
(PID.TID 0000.0001) %MON seaice_sitracer02_sd         =   0.0000000000000E+00
(PID.TID 0000.0001) %MON seaice_sitracer02_del2       =   0.0000000000000E+00
(PID.TID 0000.0001) %MON trcstat_ptracer01_max        =                      NAN
(PID.TID 0000.0001) %MON trcstat_ptracer01_min        =                      NAN
(PID.TID 0000.0001) %MON trcstat_ptracer01_mean       =                      NAN
(PID.TID 0000.0001) %MON trcstat_ptracer01_sd         =                      NAN
(PID.TID 0000.0001) %MON trcstat_ptracer01_del2       =                      NAN
(PID.TID 0000.0001) %MON trcstat_ptracer02_max        =   2.4088283189212001E-01
(PID.TID 0000.0001) %MON trcstat_ptracer02_min        =   2.2474205615250000E-07
(PID.TID 0000.0001) %MON trcstat_ptracer02_mean       =   1.3306268867076001E-02
(PID.TID 0000.0001) %MON trcstat_ptracer02_sd         =   1.7399648106629001E-02
(PID.TID 0000.0001) %MON trcstat_ptracer02_del2       =   8.4392226997531997E-04
(PID.TID 0000.0001) %MON trcstat_ptracer03_max        =   2.3343713360813001E+00
(PID.TID 0000.0001) %MON trcstat_ptracer03_min        =   3.0233044741169001E-05
(PID.TID 0000.0001) %MON trcstat_ptracer03_mean       =   1.5995994386708001E-01
(PID.TID 0000.0001) %MON trcstat_ptracer03_sd         =   1.8965697331949999E-01
(PID.TID 0000.0001) %MON trcstat_ptracer03_del2       =   7.1050919677114995E-04
(PID.TID 0000.0001) %MON trcstat_ptracer04_max        =   4.4161324524731000E+01
(PID.TID 0000.0001) %MON trcstat_ptracer04_min        =   1.4930485383354000E-02
(PID.TID 0000.0001) %MON trcstat_ptracer04_mean       =   4.5816946354513997E+00
(PID.TID 0000.0001) %MON trcstat_ptracer04_sd         =   6.6985150791486996E+00
(PID.TID 0000.0001) %MON trcstat_ptracer04_del2       =   1.2507498180653999E-02
(PID.TID 0000.0001) %MON trcstat_ptracer05_max        =   4.3206749483821003E+00
(PID.TID 0000.0001) %MON trcstat_ptracer05_min        =   3.7997221289854999E-02
(PID.TID 0000.0001) %MON trcstat_ptracer05_mean       =   5.9103671591412998E-01
(PID.TID 0000.0001) %MON trcstat_ptracer05_sd         =   5.1755891503144003E-01
(PID.TID 0000.0001) %MON trcstat_ptracer05_del2       =   8.6322666859241996E-04
(PID.TID 0000.0001) %MON trcstat_ptracer06_max        =   1.5669854101844001E+02
(PID.TID 0000.0001) %MON trcstat_ptracer06_min        =   6.2666926623515001E-02
(PID.TID 0000.0001) %MON trcstat_ptracer06_mean       =   1.4711712348282999E+01
(PID.TID 0000.0001) %MON trcstat_ptracer06_sd         =   1.7084930997851998E+01
(PID.TID 0000.0001) %MON trcstat_ptracer06_del2       =   2.7884970893015001E-02
(PID.TID 0000.0001) %MON trcstat_ptracer07_max        =   1.3876605029832000E-03
(PID.TID 0000.0001) %MON trcstat_ptracer07_min        =   5.8864303059657000E-04
(PID.TID 0000.0001) %MON trcstat_ptracer07_mean       =   1.0854101856158001E-03
(PID.TID 0000.0001) %MON trcstat_ptracer07_sd         =   1.4544221423653001E-04
(PID.TID 0000.0001) %MON trcstat_ptracer07_del2       =   4.5510068884114999E-07
(PID.TID 0000.0001) %MON trcstat_ptracer08_max        =   3.3988026277105199E+01
(PID.TID 0000.0001) %MON trcstat_ptracer08_min        =   1.0008355486136641E-05
(PID.TID 0000.0001) %MON trcstat_ptracer08_mean       =   7.0068118323062407E+00
(PID.TID 0000.0001) %MON trcstat_ptracer08_sd         =   6.8277362995400397E+00
(PID.TID 0000.0001) %MON trcstat_ptracer08_del2       =   1.7653856611914001E-02
(PID.TID 0000.0001) %MON trcstat_ptracer09_max        =   4.5317368369473998E+00
(PID.TID 0000.0001) %MON trcstat_ptracer09_min        =   1.3344473981515999E-06
(PID.TID 0000.0001) %MON trcstat_ptracer09_mean       =   9.3424157764084004E-01
(PID.TID 0000.0001) %MON trcstat_ptracer09_sd         =   9.1036483993867001E-01
(PID.TID 0000.0001) %MON trcstat_ptracer09_del2       =   2.3538475482552000E-03
(PID.TID 0000.0001) %MON trcstat_ptracer10_max        =   2.8323355230920999E-01
(PID.TID 0000.0001) %MON trcstat_ptracer10_min        =   8.3402962384472004E-08
(PID.TID 0000.0001) %MON trcstat_ptracer10_mean       =   5.8390098602552003E-02
(PID.TID 0000.0001) %MON trcstat_ptracer10_sd         =   5.6897802496167001E-02
(PID.TID 0000.0001) %MON trcstat_ptracer10_del2       =   1.4711547176595000E-04
(PID.TID 0000.0001) %MON trcstat_ptracer11_max        =   2.8323355230921001E-04
(PID.TID 0000.0001) %MON trcstat_ptracer11_min        =   8.3402962384473996E-11
(PID.TID 0000.0001) %MON trcstat_ptracer11_mean       =   5.8390098590765002E-05
(PID.TID 0000.0001) %MON trcstat_ptracer11_sd         =   5.6897802550779997E-05
(PID.TID 0000.0001) %MON trcstat_ptracer11_del2       =   1.4711547217959001E-07
(PID.TID 0000.0001) %MON trcstat_ptracer12_max        =   1.2145173872086799E+02
(PID.TID 0000.0001) %MON trcstat_ptracer12_min        =   4.0474779506731203E-07
(PID.TID 0000.0001) %MON trcstat_ptracer12_mean       =   2.4528523807463998E+00
(PID.TID 0000.0001) %MON trcstat_ptracer12_sd         =   5.8847527692662398E+00
(PID.TID 0000.0001) %MON trcstat_ptracer12_del2       =   3.5676707414753997E-02
(PID.TID 0000.0001) %MON trcstat_ptracer13_max        =   1.6193565162782999E+01
(PID.TID 0000.0001) %MON trcstat_ptracer13_min        =   5.3966372675641000E-08
(PID.TID 0000.0001) %MON trcstat_ptracer13_mean       =   3.2704698409951999E-01
(PID.TID 0000.0001) %MON trcstat_ptracer13_sd         =   7.8463370256883003E-01
(PID.TID 0000.0001) %MON trcstat_ptracer13_del2       =   4.7568943219673003E-03
(PID.TID 0000.0001) %MON trcstat_ptracer14_max        =   1.0120978226738999E+00
(PID.TID 0000.0001) %MON trcstat_ptracer14_min        =   3.3728982922276001E-09
(PID.TID 0000.0001) %MON trcstat_ptracer14_mean       =   2.0440436506219999E-02
(PID.TID 0000.0001) %MON trcstat_ptracer14_sd         =   4.9039606410552002E-02
(PID.TID 0000.0001) %MON trcstat_ptracer14_del2       =   2.9730589512294998E-04
(PID.TID 0000.0001) %MON trcstat_ptracer15_max        =   3.0580937614224001E+02
(PID.TID 0000.0001) %MON trcstat_ptracer15_min        =   9.2263135852666005E-08
(PID.TID 0000.0001) %MON trcstat_ptracer15_mean       =   2.2926781173420001E+00
(PID.TID 0000.0001) %MON trcstat_ptracer15_sd         =   1.2523619914417999E+01
(PID.TID 0000.0001) %MON trcstat_ptracer15_del2       =   5.3794026014665000E-02
(PID.TID 0000.0001) %MON trcstat_ptracer16_max        =   1.0120978226738999E-03
(PID.TID 0000.0001) %MON trcstat_ptracer16_min        =   3.3728982922275999E-12
(PID.TID 0000.0001) %MON trcstat_ptracer16_mean       =   2.0440436510832001E-05
(PID.TID 0000.0001) %MON trcstat_ptracer16_sd         =   4.9039606407544997E-05
(PID.TID 0000.0001) %MON trcstat_ptracer16_del2       =   2.9730589535055998E-07
(PID.TID 0000.0001) %MON trcstat_ptracer17_max        =                      NAN
(PID.TID 0000.0001) %MON trcstat_ptracer17_min        =                      NAN
(PID.TID 0000.0001) %MON trcstat_ptracer17_mean       =                      NAN
(PID.TID 0000.0001) %MON trcstat_ptracer17_sd         =                      NAN
(PID.TID 0000.0001) %MON trcstat_ptracer17_del2       =                      NAN
(PID.TID 0000.0001) %MON trcstat_ptracer18_max        =   6.7160809275511194E-03
(PID.TID 0000.0001) %MON trcstat_ptracer18_min        =  -2.5282282675184403E-17
(PID.TID 0000.0001) %MON trcstat_ptracer18_mean       =   1.4978182993078801E-05
(PID.TID 0000.0001) %MON trcstat_ptracer18_sd         =   2.1608478386643602E-04
(PID.TID 0000.0001) %MON trcstat_ptracer18_del2       =   5.4234963262380004E-06
(PID.TID 0000.0001) %MON trcstat_ptracer19_max        =   6.3412597152118805E-02
(PID.TID 0000.0001) %MON trcstat_ptracer19_min        =  -2.7122201165531997E-22
(PID.TID 0000.0001) %MON trcstat_ptracer19_mean       =   8.8554033809906392E-04
(PID.TID 0000.0001) %MON trcstat_ptracer19_sd         =   4.8230735621064003E-03
(PID.TID 0000.0001) %MON trcstat_ptracer19_del2       =   2.2948461094220400E-05
(PID.TID 0000.0001) %MON trcstat_ptracer20_max        =   6.7160816657479199E-03
(PID.TID 0000.0001) %MON trcstat_ptracer20_min        =   6.8477824509233999E-49
(PID.TID 0000.0001) %MON trcstat_ptracer20_mean       =   1.4993960598903602E-05
(PID.TID 0000.0001) %MON trcstat_ptracer20_sd         =   2.1608369210480399E-04
(PID.TID 0000.0001) %MON trcstat_ptracer20_del2       =   5.4234975367926003E-06
(PID.TID 0000.0001) %MON trcstat_ptracer21_max        =   1.7065828309101600E-02
(PID.TID 0000.0001) %MON trcstat_ptracer21_min        =   9.6751936385919605E-32
(PID.TID 0000.0001) %MON trcstat_ptracer21_mean       =   3.2255229412249197E-04
(PID.TID 0000.0001) %MON trcstat_ptracer21_sd         =   1.2938275261847999E-03
(PID.TID 0000.0001) %MON trcstat_ptracer21_del2       =   1.2580685187547200E-05
(PID.TID 0000.0001) %MON trcstat_ptracer22_max        =   6.2875543792765198E-03
(PID.TID 0000.0001) %MON trcstat_ptracer22_min        =  -3.2258539962786002E-15
(PID.TID 0000.0001) %MON trcstat_ptracer22_mean       =   1.2723714756593999E-05
(PID.TID 0000.0001) %MON trcstat_ptracer22_sd         =   1.9879652239618799E-04
(PID.TID 0000.0001) %MON trcstat_ptracer22_del2       =   5.5465273533862798E-06
(PID.TID 0000.0001) %MON trcstat_ptracer23_max        =   1.1655290670311400E+00
(PID.TID 0000.0001) %MON trcstat_ptracer23_min        =   1.5491371719865199E-17
(PID.TID 0000.0001) %MON trcstat_ptracer23_mean       =   2.9621691744934796E-02
(PID.TID 0000.0001) %MON trcstat_ptracer23_sd         =   8.1493414059533989E-02
(PID.TID 0000.0001) %MON trcstat_ptracer23_del2       =   6.4200896604985199E-04
(PID.TID 0000.0001) %MON trcstat_ptracer24_max        =   1.1113689816363600E+01
(PID.TID 0000.0001) %MON trcstat_ptracer24_min        =   8.0446875794931606E-22
(PID.TID 0000.0001) %MON trcstat_ptracer24_mean       =   1.9465741644133200E-01
(PID.TID 0000.0001) %MON trcstat_ptracer24_sd         =   7.0785731378298000E-01
(PID.TID 0000.0001) %MON trcstat_ptracer24_del2       =   5.5918233866102396E-03
(PID.TID 0000.0001) %MON trcstat_ptracer25_max        =   1.2706961191768801E-01
(PID.TID 0000.0001) %MON trcstat_ptracer25_min        =   1.1999999999984880E-48
(PID.TID 0000.0001) %MON trcstat_ptracer25_mean       =   3.5974285793982002E-04
(PID.TID 0000.0001) %MON trcstat_ptracer25_sd         =   2.9088452635794002E-03
(PID.TID 0000.0001) %MON trcstat_ptracer25_del2       =   2.0527733810602799E-05
(PID.TID 0000.0001) %MON trcstat_ptracer26_max        =   1.5692748325572001E+00
(PID.TID 0000.0001) %MON trcstat_ptracer26_min        =   1.4644528178958001E-27
(PID.TID 0000.0001) %MON trcstat_ptracer26_mean       =   1.6750711579971600E-02
(PID.TID 0000.0001) %MON trcstat_ptracer26_sd         =   8.6928193872717593E-02
(PID.TID 0000.0001) %MON trcstat_ptracer26_del2       =   8.7892186118215202E-04
(PID.TID 0000.0001) %MON trcstat_ptracer27_max        =   6.4885703170104005E-03
(PID.TID 0000.0001) %MON trcstat_ptracer27_min        =   1.5125227373541600E-12
(PID.TID 0000.0001) %MON trcstat_ptracer27_mean       =   1.4048560587106800E-05
(PID.TID 0000.0001) %MON trcstat_ptracer27_sd         =   2.1012996932359202E-04
(PID.TID 0000.0001) %MON trcstat_ptracer27_del2       =   5.4449869265398799E-06
(PID.TID 0000.0001) %MON trcstat_ptracer28_max        =   6.4885558151430000E-03
(PID.TID 0000.0001) %MON trcstat_ptracer28_min        =  -6.5388706433223607E-17
(PID.TID 0000.0001) %MON trcstat_ptracer28_mean       =   1.3888117610578799E-05
(PID.TID 0000.0001) %MON trcstat_ptracer28_sd         =   2.1013862043381602E-04
(PID.TID 0000.0001) %MON trcstat_ptracer28_del2       =   5.4449905361659193E-06
(PID.TID 0000.0001) %MON trcstat_ptracer29_max        =   6.2875543793829598E-03
(PID.TID 0000.0001) %MON trcstat_ptracer29_min        =  -2.4747053506227598E-19
(PID.TID 0000.0001) %MON trcstat_ptracer29_mean       =   1.2723714777145200E-05
(PID.TID 0000.0001) %MON trcstat_ptracer29_sd         =   1.9879652239869602E-04
(PID.TID 0000.0001) %MON trcstat_ptracer29_del2       =   5.5465273533505206E-06
(PID.TID 0000.0001) %MON trcstat_ptracer30_max        =   6.7160809275052802E-03
(PID.TID 0000.0001) %MON trcstat_ptracer30_min        =   6.8248312013920804E-49
(PID.TID 0000.0001) %MON trcstat_ptracer30_mean       =   1.4978295329943599E-05
(PID.TID 0000.0001) %MON trcstat_ptracer30_sd         =   2.1608477585438398E-04
(PID.TID 0000.0001) %MON trcstat_ptracer30_del2       =   5.4234963311503197E-06
(PID.TID 0000.0001) %MON trcstat_ptracer31_max        =   6.2875543793589599E-03
(PID.TID 0000.0001) %MON trcstat_ptracer31_min        =  -3.1196430320518799E-15
(PID.TID 0000.0001) %MON trcstat_ptracer31_mean       =   1.2723714756916800E-05
(PID.TID 0000.0001) %MON trcstat_ptracer31_sd         =   1.9879652239883998E-04
(PID.TID 0000.0001) %MON trcstat_ptracer31_del2       =   5.5465273533665999E-06
(PID.TID 0000.0001) %MON trcstat_ptracer32_max        =   6.7160809260695996E-03
(PID.TID 0000.0001) %MON trcstat_ptracer32_min        =  -7.0632941367039596E-17
(PID.TID 0000.0001) %MON trcstat_ptracer32_mean       =   1.4978126006241600E-05
(PID.TID 0000.0001) %MON trcstat_ptracer32_sd         =   2.1608478789348002E-04
(PID.TID 0000.0001) %MON trcstat_ptracer32_del2       =   5.4234963197457606E-06
(PID.TID 0000.0001) %MON trcstat_ptracer33_max        =   6.7160821880751596E-03
(PID.TID 0000.0001) %MON trcstat_ptracer33_min        =  -4.6583817337325999E-34
(PID.TID 0000.0001) %MON trcstat_ptracer33_mean       =   1.5316474111528801E-05
(PID.TID 0000.0001) %MON trcstat_ptracer33_sd         =   2.1606264666745200E-04
(PID.TID 0000.0001) %MON trcstat_ptracer33_del2       =   5.4234989361545998E-06
(PID.TID 0000.0001) %MON trcstat_ptracer34_max        =   8.5369619797228801E-03
(PID.TID 0000.0001) %MON trcstat_ptracer34_min        =   1.1859717736200120E-48
(PID.TID 0000.0001) %MON trcstat_ptracer34_mean       =   2.1104639979183600E-05
(PID.TID 0000.0001) %MON trcstat_ptracer34_sd         =   2.7177142274333998E-04
(PID.TID 0000.0001) %MON trcstat_ptracer34_del2       =   5.2131981215842805E-06
(PID.TID 0000.0001) %MON trcstat_ptracer35_max        =   3.4087417106461199E-01
(PID.TID 0000.0001) %MON trcstat_ptracer35_min        =   8.9061264105297601E-31
(PID.TID 0000.0001) %MON trcstat_ptracer35_mean       =   2.2563650138470799E-03
(PID.TID 0000.0001) %MON trcstat_ptracer35_sd         =   1.6352020503933602E-02
(PID.TID 0000.0001) %MON trcstat_ptracer35_del2       =   1.2275799572641200E-04
(PID.TID 0000.0001) %MON trcstat_ptracer36_max        =   6.7160809260717602E-03
(PID.TID 0000.0001) %MON trcstat_ptracer36_min        =  -8.5063446367294795E-17
(PID.TID 0000.0001) %MON trcstat_ptracer36_mean       =   1.4978125803491999E-05
(PID.TID 0000.0001) %MON trcstat_ptracer36_sd         =   2.1608478790846800E-04
(PID.TID 0000.0001) %MON trcstat_ptracer36_del2       =   5.4234963197223604E-06
(PID.TID 0000.0001) %MON trcstat_ptracer37_max        =   6.7160809261974002E-03
(PID.TID 0000.0001) %MON trcstat_ptracer37_min        =  -5.8380408965737197E-16
(PID.TID 0000.0001) %MON trcstat_ptracer37_mean       =   1.4978125697659200E-05
(PID.TID 0000.0001) %MON trcstat_ptracer37_sd         =   2.1608478792830400E-04
(PID.TID 0000.0001) %MON trcstat_ptracer37_del2       =   5.4234963196561199E-06
(PID.TID 0000.0001) %MON trcstat_ptracer38_max        =   6.2875564204035606E-03
(PID.TID 0000.0001) %MON trcstat_ptracer38_min        =   8.9433908143418394E-15
(PID.TID 0000.0001) %MON trcstat_ptracer38_mean       =   1.2844161199724399E-05
(PID.TID 0000.0001) %MON trcstat_ptracer38_sd         =   1.9879092579166800E-04
(PID.TID 0000.0001) %MON trcstat_ptracer38_del2       =   5.5465275288092401E-06
(PID.TID 0000.0001) %MON trcstat_ptracer39_max        =   1.2483314391821999E-01
(PID.TID 0000.0001) %MON trcstat_ptracer39_min        =   6.5261383680681604E-12
(PID.TID 0000.0001) %MON trcstat_ptracer39_mean       =   2.7591750412177202E-03
(PID.TID 0000.0001) %MON trcstat_ptracer39_sd         =   9.9028521293036409E-03
(PID.TID 0000.0001) %MON trcstat_ptracer39_del2       =   7.7797772889480010E-05
(PID.TID 0000.0001) %MON trcstat_ptracer40_max        =   6.7160810063214005E-03
(PID.TID 0000.0001) %MON trcstat_ptracer40_min        =  -1.6270224190469999E-29
(PID.TID 0000.0001) %MON trcstat_ptracer40_mean       =   1.4980425513304802E-05
(PID.TID 0000.0001) %MON trcstat_ptracer40_sd         =   2.1608462936565601E-04
(PID.TID 0000.0001) %MON trcstat_ptracer40_del2       =   5.4234964129695596E-06
(PID.TID 0000.0001) %MON trcstat_ptracer41_max        =   1.2683365085271599E-02
(PID.TID 0000.0001) %MON trcstat_ptracer41_min        =   1.6924005730764000E-48
(PID.TID 0000.0001) %MON trcstat_ptracer41_mean       =   4.4477183087186397E-05
(PID.TID 0000.0001) %MON trcstat_ptracer41_sd         =   4.7252757397375197E-04
(PID.TID 0000.0001) %MON trcstat_ptracer41_del2       =   5.5356043993324803E-06
(PID.TID 0000.0001) %MON trcstat_ptracer42_max        =   6.4885558151931604E-03
(PID.TID 0000.0001) %MON trcstat_ptracer42_min        =  -7.4258941718533202E-19
(PID.TID 0000.0001) %MON trcstat_ptracer42_mean       =   1.3888117636628401E-05
(PID.TID 0000.0001) %MON trcstat_ptracer42_sd         =   2.1013862043385199E-04
(PID.TID 0000.0001) %MON trcstat_ptracer42_del2       =   5.4449905361531994E-06
(PID.TID 0000.0001) %MON trcstat_ptracer43_max        =   6.7160809260871195E-03
(PID.TID 0000.0001) %MON trcstat_ptracer43_min        =  -6.2159805773627995E-17
(PID.TID 0000.0001) %MON trcstat_ptracer43_mean       =   1.4978127824922000E-05
(PID.TID 0000.0001) %MON trcstat_ptracer43_sd         =   2.1608478776499599E-04
(PID.TID 0000.0001) %MON trcstat_ptracer43_del2       =   5.4234963199586403E-06
(PID.TID 0000.0001) %MON trcstat_ptracer44_max        =   6.7160809265698800E-03
(PID.TID 0000.0001) %MON trcstat_ptracer44_min        =  -9.3090822545179192E-33
(PID.TID 0000.0001) %MON trcstat_ptracer44_mean       =   1.4978181717151198E-05
(PID.TID 0000.0001) %MON trcstat_ptracer44_sd         =   2.1608478396531602E-04
(PID.TID 0000.0001) %MON trcstat_ptracer44_del2       =   5.4234963229268394E-06
(PID.TID 0000.0001) %MON trcstat_ptracer45_max        =   6.7161513069572401E-03
(PID.TID 0000.0001) %MON trcstat_ptracer45_min        =   9.3918339976630804E-49
(PID.TID 0000.0001) %MON trcstat_ptracer45_mean       =   1.6595085099736800E-05
(PID.TID 0000.0001) %MON trcstat_ptracer45_sd         =   2.1605970279298800E-04
(PID.TID 0000.0001) %MON trcstat_ptracer45_del2       =   5.4238045621256403E-06
(PID.TID 0000.0001) %MON trcstat_ptracer46_max        =   6.7844985183364796E-03
(PID.TID 0000.0001) %MON trcstat_ptracer46_min        =   1.1527462138715520E-48
(PID.TID 0000.0001) %MON trcstat_ptracer46_mean       =   1.9736674336267200E-05
(PID.TID 0000.0001) %MON trcstat_ptracer46_sd         =   2.7119131803302401E-04
(PID.TID 0000.0001) %MON trcstat_ptracer46_del2       =   4.9224993353276397E-06
(PID.TID 0000.0001) %MON trcstat_ptracer47_max        =   6.7161038876413200E-03
(PID.TID 0000.0001) %MON trcstat_ptracer47_min        =   1.2000000922218000E-48
(PID.TID 0000.0001) %MON trcstat_ptracer47_mean       =   1.6779495549475200E-05
(PID.TID 0000.0001) %MON trcstat_ptracer47_sd         =   2.1599687247224398E-04
(PID.TID 0000.0001) %MON trcstat_ptracer47_del2       =   5.4235717356031202E-06
(PID.TID 0000.0001) %MON trcstat_ptracer48_max        =   6.8938790887177193E-03
(PID.TID 0000.0001) %MON trcstat_ptracer48_min        =   5.3979399989964003E-48
(PID.TID 0000.0001) %MON trcstat_ptracer48_mean       =   1.7479143007205998E-05
(PID.TID 0000.0001) %MON trcstat_ptracer48_sd         =   2.5542746083288798E-04
(PID.TID 0000.0001) %MON trcstat_ptracer48_del2       =   5.0236493622825606E-06
(PID.TID 0000.0001) %MON trcstat_ptracer49_max        =   6.2875543796096396E-03
(PID.TID 0000.0001) %MON trcstat_ptracer49_min        =  -3.0920396209087202E-15
(PID.TID 0000.0001) %MON trcstat_ptracer49_mean       =   1.2723714757670400E-05
(PID.TID 0000.0001) %MON trcstat_ptracer49_sd         =   1.9879652240895599E-04
(PID.TID 0000.0001) %MON trcstat_ptracer49_del2       =   5.5465273532811605E-06
(PID.TID 0000.0001) %MON trcstat_ptracer50_max        =   6.7160809262004004E-03
(PID.TID 0000.0001) %MON trcstat_ptracer50_min        =  -5.1039529408167601E-16
(PID.TID 0000.0001) %MON trcstat_ptracer50_mean       =   1.4978125697515199E-05
(PID.TID 0000.0001) %MON trcstat_ptracer50_sd         =   2.1608478792728398E-04
(PID.TID 0000.0001) %MON trcstat_ptracer50_del2       =   5.4234963196598401E-06
(PID.TID 0000.0001) %MON trcstat_ptracer51_max        =   6.2875543795840802E-03
(PID.TID 0000.0001) %MON trcstat_ptracer51_min        =  -2.5603117599065999E-21
(PID.TID 0000.0001) %MON trcstat_ptracer51_mean       =   1.2723714795664800E-05
(PID.TID 0000.0001) %MON trcstat_ptracer51_sd         =   1.9879652240610001E-04
(PID.TID 0000.0001) %MON trcstat_ptracer51_del2       =   5.5465273532825996E-06
(PID.TID 0000.0001) %MON trcstat_ptracer52_max        =   3.5176039099413599E+00
(PID.TID 0000.0001) %MON trcstat_ptracer52_min        =   5.3459319148452002E-39
(PID.TID 0000.0001) %MON trcstat_ptracer52_mean       =   3.9944171200837195E-02
(PID.TID 0000.0001) %MON trcstat_ptracer52_sd         =   2.2163542487032800E-01
(PID.TID 0000.0001) %MON trcstat_ptracer52_del2       =   1.1350427046437281E-03
(PID.TID 0000.0001) %MON trcstat_ptracer53_max        =   6.4221068001889203E-02
(PID.TID 0000.0001) %MON trcstat_ptracer53_min        =   1.9529037883882801E-42
(PID.TID 0000.0001) %MON trcstat_ptracer53_mean       =   1.1612737164747722E-04
(PID.TID 0000.0001) %MON trcstat_ptracer53_sd         =   1.1594711611132920E-03
(PID.TID 0000.0001) %MON trcstat_ptracer53_del2       =   1.0782152817854639E-05
(PID.TID 0000.0001) %MON trcstat_ptracer54_max        =   1.2729864111264000E-02
(PID.TID 0000.0001) %MON trcstat_ptracer54_min        =   1.1904741120517680E-31
(PID.TID 0000.0001) %MON trcstat_ptracer54_mean       =   2.6076055864677598E-05
(PID.TID 0000.0001) %MON trcstat_ptracer54_sd         =   3.9386707893871201E-04
(PID.TID 0000.0001) %MON trcstat_ptracer54_del2       =   5.2669303447720802E-06
(PID.TID 0000.0001) %MON trcstat_ptracer55_max        =   9.4058555483037612E-03
(PID.TID 0000.0001) %MON trcstat_ptracer55_min        =   1.1755386188436240E-48
(PID.TID 0000.0001) %MON trcstat_ptracer55_mean       =   2.4517059857141998E-05
(PID.TID 0000.0001) %MON trcstat_ptracer55_sd         =   3.0685046740780799E-04
(PID.TID 0000.0001) %MON trcstat_ptracer55_del2       =   5.0131578039420006E-06
(PID.TID 0000.0001) %MON trcstat_ptracer56_max        =   9.2475517582183194E-03
(PID.TID 0000.0001) %MON trcstat_ptracer56_min        =  -7.4390681946994792E-30
(PID.TID 0000.0001) %MON trcstat_ptracer56_mean       =   2.4818747677033200E-05
(PID.TID 0000.0001) %MON trcstat_ptracer56_sd         =   3.5305634248372804E-04
(PID.TID 0000.0001) %MON trcstat_ptracer56_del2       =   4.7654336085242398E-06
(PID.TID 0000.0001) %MON trcstat_ptracer57_max        =   8.2128333719356812E-03
(PID.TID 0000.0001) %MON trcstat_ptracer57_min        =   7.9736904284560794E-28
(PID.TID 0000.0001) %MON trcstat_ptracer57_mean       =   1.8158387150885997E-05
(PID.TID 0000.0001) %MON trcstat_ptracer57_sd         =   2.8482963896816403E-04
(PID.TID 0000.0001) %MON trcstat_ptracer57_del2       =   4.9525893704286004E-06
(PID.TID 0000.0001) %MON trcstat_ptracer58_max        =   8.2835535352910415E-03
(PID.TID 0000.0001) %MON trcstat_ptracer58_min        =   1.1913681008879521E-48
(PID.TID 0000.0001) %MON trcstat_ptracer58_mean       =   2.0381874760658400E-05
(PID.TID 0000.0001) %MON trcstat_ptracer58_sd         =   2.6328216242002799E-04
(PID.TID 0000.0001) %MON trcstat_ptracer58_del2       =   5.2658513251495202E-06
(PID.TID 0000.0001) %MON trcstat_ptracer59_max        =   8.1233807771091595E-03
(PID.TID 0000.0001) %MON trcstat_ptracer59_min        =   1.1495083044078481E-48
(PID.TID 0000.0001) %MON trcstat_ptracer59_mean       =   2.9172609352293604E-05
(PID.TID 0000.0001) %MON trcstat_ptracer59_sd         =   3.5619893551756799E-04
(PID.TID 0000.0001) %MON trcstat_ptracer59_del2       =   4.6308942958829998E-06
(PID.TID 0000.0001) %MON trcstat_ptracer60_max        =   5.5955091554313600E-02
(PID.TID 0000.0001) %MON trcstat_ptracer60_min        =  -2.1475437762903600E-22
(PID.TID 0000.0001) %MON trcstat_ptracer60_mean       =   2.1939859106384402E-04
(PID.TID 0000.0001) %MON trcstat_ptracer60_sd         =   2.0573795352376799E-03
(PID.TID 0000.0001) %MON trcstat_ptracer60_del2       =   2.7430181135232000E-05
(PID.TID 0000.0001) %MON trcstat_ptracer61_max        =   6.4885563437893194E-03
(PID.TID 0000.0001) %MON trcstat_ptracer61_min        =   4.9468006174200000E-16
(PID.TID 0000.0001) %MON trcstat_ptracer61_mean       =   1.3888990959673199E-05
(PID.TID 0000.0001) %MON trcstat_ptracer61_sd         =   2.1013860533350800E-04
(PID.TID 0000.0001) %MON trcstat_ptracer61_del2       =   5.4449902954143605E-06
(PID.TID 0000.0001) %MON trcstat_ptracer62_max        =   6.7160809260808797E-03
(PID.TID 0000.0001) %MON trcstat_ptracer62_min        =  -6.1481025941139597E-17
(PID.TID 0000.0001) %MON trcstat_ptracer62_mean       =   1.4978128784029201E-05
(PID.TID 0000.0001) %MON trcstat_ptracer62_sd         =   2.1608478769569598E-04
(PID.TID 0000.0001) %MON trcstat_ptracer62_del2       =   5.4234963200674798E-06
(PID.TID 0000.0001) %MON trcstat_ptracer63_max        =   6.2875543795564799E-03
(PID.TID 0000.0001) %MON trcstat_ptracer63_min        =  -3.1693852180723203E-15
(PID.TID 0000.0001) %MON trcstat_ptracer63_mean       =   1.2723714757639199E-05
(PID.TID 0000.0001) %MON trcstat_ptracer63_sd         =   1.9879652240755200E-04
(PID.TID 0000.0001) %MON trcstat_ptracer63_del2       =   5.5465273532966400E-06
(PID.TID 0000.0001) %MON trcstat_ptracer64_max        =   6.2875543795122002E-03
(PID.TID 0000.0001) %MON trcstat_ptracer64_min        =  -7.6703530979492402E-23
(PID.TID 0000.0001) %MON trcstat_ptracer64_mean       =   1.2723714991387200E-05
(PID.TID 0000.0001) %MON trcstat_ptracer64_sd         =   1.9879652239006800E-04
(PID.TID 0000.0001) %MON trcstat_ptracer64_del2       =   5.5465273533069603E-06
(PID.TID 0000.0001) %MON trcstat_ptracer65_max        =   6.7160809259473207E-03
(PID.TID 0000.0001) %MON trcstat_ptracer65_min        =  -7.0363779823151999E-17
(PID.TID 0000.0001) %MON trcstat_ptracer65_mean       =   1.4978126278840799E-05
(PID.TID 0000.0001) %MON trcstat_ptracer65_sd         =   2.1608478786628798E-04
(PID.TID 0000.0001) %MON trcstat_ptracer65_del2       =   5.4234963198447601E-06
(PID.TID 0000.0001) %MON trcstat_ptracer66_max        =   6.7160809262110802E-03
(PID.TID 0000.0001) %MON trcstat_ptracer66_min        =  -3.2070499543220398E-16
(PID.TID 0000.0001) %MON trcstat_ptracer66_mean       =   1.4978125699484399E-05
(PID.TID 0000.0001) %MON trcstat_ptracer66_sd         =   2.1608478792789598E-04
(PID.TID 0000.0001) %MON trcstat_ptracer66_del2       =   5.4234963196570804E-06
(PID.TID 0000.0001) %MON trcstat_ptracer67_max        =   1.3736084507503200E-02
(PID.TID 0000.0001) %MON trcstat_ptracer67_min        =   9.3803184835652397E-29
(PID.TID 0000.0001) %MON trcstat_ptracer67_mean       =   2.9833476152897998E-05
(PID.TID 0000.0001) %MON trcstat_ptracer67_sd         =   4.1775358703774403E-04
(PID.TID 0000.0001) %MON trcstat_ptracer67_del2       =   5.4920863283725207E-06
(PID.TID 0000.0001) %MON trcstat_ptracer68_max        =   6.7160809286445598E-03
(PID.TID 0000.0001) %MON trcstat_ptracer68_min        =   1.1981322737831641E-48
(PID.TID 0000.0001) %MON trcstat_ptracer68_mean       =   1.4978292998680800E-05
(PID.TID 0000.0001) %MON trcstat_ptracer68_sd         =   2.1608477619469198E-04
(PID.TID 0000.0001) %MON trcstat_ptracer68_del2       =   5.4234963292426796E-06
(PID.TID 0000.0001) %MON trcstat_ptracer69_max        =   2.2825633352272798E+00
(PID.TID 0000.0001) %MON trcstat_ptracer69_min        =  -4.6291581999816002E-17
(PID.TID 0000.0001) %MON trcstat_ptracer69_mean       =   7.5128007146495993E-02
(PID.TID 0000.0001) %MON trcstat_ptracer69_sd         =   2.0146212574814401E-01
(PID.TID 0000.0001) %MON trcstat_ptracer69_del2       =   1.2068343674944799E-03
(PID.TID 0000.0001) %MON trcstat_ptracer70_max        =   6.4885558153352403E-03
(PID.TID 0000.0001) %MON trcstat_ptracer70_min        =  -1.6034012013721199E-16
(PID.TID 0000.0001) %MON trcstat_ptracer70_mean       =   1.3888117611274799E-05
(PID.TID 0000.0001) %MON trcstat_ptracer70_sd         =   2.1013862044132802E-04
(PID.TID 0000.0001) %MON trcstat_ptracer70_del2       =   5.4449905361145603E-06
(PID.TID 0000.0001) %MON trcstat_ptracer71_max        =   6.4969872925713604E-03
(PID.TID 0000.0001) %MON trcstat_ptracer71_min        =   5.9707138504922394E-35
(PID.TID 0000.0001) %MON trcstat_ptracer71_mean       =   1.6604899940562002E-05
(PID.TID 0000.0001) %MON trcstat_ptracer71_sd         =   2.1812318996490001E-04
(PID.TID 0000.0001) %MON trcstat_ptracer71_del2       =   5.3380389647415603E-06
(PID.TID 0000.0001) %MON trcstat_ptracer72_max        =   6.2875543795657199E-03
(PID.TID 0000.0001) %MON trcstat_ptracer72_min        =  -2.9404870413890399E-17
(PID.TID 0000.0001) %MON trcstat_ptracer72_mean       =   1.2723714759644400E-05
(PID.TID 0000.0001) %MON trcstat_ptracer72_sd         =   1.9879652240653199E-04
(PID.TID 0000.0001) %MON trcstat_ptracer72_del2       =   5.5465273532995199E-06
(PID.TID 0000.0001) %MON trcstat_ptracer73_max        =   6.2875543900119601E-03
(PID.TID 0000.0001) %MON trcstat_ptracer73_min        =   8.1248848098953991E-27
(PID.TID 0000.0001) %MON trcstat_ptracer73_mean       =   1.2723739760448001E-05
(PID.TID 0000.0001) %MON trcstat_ptracer73_sd         =   1.9879652170921202E-04
(PID.TID 0000.0001) %MON trcstat_ptracer73_del2       =   5.5465273475172004E-06
(PID.TID 0000.0001) %MON trcstat_ptracer74_max        =   6.2875543795312796E-03
(PID.TID 0000.0001) %MON trcstat_ptracer74_min        =  -1.6416116159769600E-15
(PID.TID 0000.0001) %MON trcstat_ptracer74_mean       =   1.2723714757456799E-05
(PID.TID 0000.0001) %MON trcstat_ptracer74_sd         =   1.9879652240527198E-04
(PID.TID 0000.0001) %MON trcstat_ptracer74_del2       =   5.5465273533170400E-06
(PID.TID 0000.0001) %MON trcstat_ptracer75_max        =   1.1563372694077200E+01
(PID.TID 0000.0001) %MON trcstat_ptracer75_min        =   3.9154933621702803E-13
(PID.TID 0000.0001) %MON trcstat_ptracer75_mean       =   8.1533559683942403E-01
(PID.TID 0000.0001) %MON trcstat_ptracer75_sd         =   1.2499489827991201E+00
(PID.TID 0000.0001) %MON trcstat_ptracer75_del2       =   7.5239554734345595E-03
(PID.TID 0000.0001) %MON trcstat_ptracer76_max        =   6.7160809264748406E-03
(PID.TID 0000.0001) %MON trcstat_ptracer76_min        =  -1.7801553757563598E-21
(PID.TID 0000.0001) %MON trcstat_ptracer76_mean       =   1.4978149687838401E-05
(PID.TID 0000.0001) %MON trcstat_ptracer76_sd         =   2.1608478621782401E-04
(PID.TID 0000.0001) %MON trcstat_ptracer76_del2       =   5.4234963217216800E-06
(PID.TID 0000.0001) %MON trcstat_ptracer77_max        =   6.7394709529279206E-03
(PID.TID 0000.0001) %MON trcstat_ptracer77_min        =   1.0473705014628840E-48
(PID.TID 0000.0001) %MON trcstat_ptracer77_mean       =   1.6951172544566401E-05
(PID.TID 0000.0001) %MON trcstat_ptracer77_sd         =   2.4144707482642803E-04
(PID.TID 0000.0001) %MON trcstat_ptracer77_del2       =   5.1421339830619194E-06
(PID.TID 0000.0001) %MON trcstat_ptracer78_max        =   1.7693726407652398E-02
(PID.TID 0000.0001) %MON trcstat_ptracer78_min        =  -6.4025918774347205E-41
(PID.TID 0000.0001) %MON trcstat_ptracer78_mean       =   6.2539544800837194E-05
(PID.TID 0000.0001) %MON trcstat_ptracer78_sd         =   6.2819084007913206E-04
(PID.TID 0000.0001) %MON trcstat_ptracer78_del2       =   5.5086829648420803E-06
(PID.TID 0000.0001) %MON trcstat_ptracer79_max        =   2.5533849764982000E+00
(PID.TID 0000.0001) %MON trcstat_ptracer79_min        =   2.5968499507542001E-33
(PID.TID 0000.0001) %MON trcstat_ptracer79_mean       =   1.6113645824277600E-02
(PID.TID 0000.0001) %MON trcstat_ptracer79_sd         =   1.0103079475887720E-01
(PID.TID 0000.0001) %MON trcstat_ptracer79_del2       =   5.9343214858072798E-04
(PID.TID 0000.0001) %MON trcstat_ptracer80_max        =   2.3194180193642399E-02
(PID.TID 0000.0001) %MON trcstat_ptracer80_min        =  -4.3001544464234400E-26
(PID.TID 0000.0001) %MON trcstat_ptracer80_mean       =   6.4854017479339197E-05
(PID.TID 0000.0001) %MON trcstat_ptracer80_sd         =   7.9389216815170798E-04
(PID.TID 0000.0001) %MON trcstat_ptracer80_del2       =   8.7017889398613606E-06
(PID.TID 0000.0001) %MON trcstat_ptracer81_max        =   6.7162844142026404E-03
(PID.TID 0000.0001) %MON trcstat_ptracer81_min        =   1.0115682715689600E-48
(PID.TID 0000.0001) %MON trcstat_ptracer81_mean       =   1.5044666441185199E-05
(PID.TID 0000.0001) %MON trcstat_ptracer81_sd         =   2.1609586531785599E-04
(PID.TID 0000.0001) %MON trcstat_ptracer81_del2       =   5.4234295419595206E-06
(PID.TID 0000.0001) %MON trcstat_ptracer82_max        =   6.2875543796097602E-03
(PID.TID 0000.0001) %MON trcstat_ptracer82_min        =  -3.0912574428382803E-15
(PID.TID 0000.0001) %MON trcstat_ptracer82_mean       =   1.2723714757680000E-05
(PID.TID 0000.0001) %MON trcstat_ptracer82_sd         =   1.9879652240905200E-04
(PID.TID 0000.0001) %MON trcstat_ptracer82_del2       =   5.5465273532802000E-06
(PID.TID 0000.0001) %MON trcstat_ptracer83_max        =   6.7160809261230005E-03
(PID.TID 0000.0001) %MON trcstat_ptracer83_min        =  -2.2534293845649601E-16
(PID.TID 0000.0001) %MON trcstat_ptracer83_mean       =   1.4978125697239202E-05
(PID.TID 0000.0001) %MON trcstat_ptracer83_sd         =   2.1608478792088800E-04
(PID.TID 0000.0001) %MON trcstat_ptracer83_del2       =   5.4234963197170800E-06
(PID.TID 0000.0001) %MON trcstat_ptracer84_max        =   6.7160809262158802E-03
(PID.TID 0000.0001) %MON trcstat_ptracer84_min        =  -1.3626434516072400E-16
(PID.TID 0000.0001) %MON trcstat_ptracer84_mean       =   1.4978125712980801E-05
(PID.TID 0000.0001) %MON trcstat_ptracer84_sd         =   2.1608478792635999E-04
(PID.TID 0000.0001) %MON trcstat_ptracer84_del2       =   5.4234963196600798E-06
(PID.TID 0000.0001) %MON trcstat_ptracer85_max        =   7.5904337762751597E+00
(PID.TID 0000.0001) %MON trcstat_ptracer85_min        =   5.5374921837209997E-28
(PID.TID 0000.0001) %MON trcstat_ptracer85_mean       =   4.4243044391546399E-01
(PID.TID 0000.0001) %MON trcstat_ptracer85_sd         =   9.5958716129935206E-01
(PID.TID 0000.0001) %MON trcstat_ptracer85_del2       =   3.5990363071408803E-03
(PID.TID 0000.0001) %MON trcstat_ptracer86_max        =   6.4885558153515597E-03
(PID.TID 0000.0001) %MON trcstat_ptracer86_min        =  -1.6307328206468400E-16
(PID.TID 0000.0001) %MON trcstat_ptracer86_mean       =   1.3888117611271199E-05
(PID.TID 0000.0001) %MON trcstat_ptracer86_sd         =   2.1013862044137602E-04
(PID.TID 0000.0001) %MON trcstat_ptracer86_del2       =   5.4449905361162400E-06
(PID.TID 0000.0001) %MON trcstat_ptracer87_max        =   2.9091624759902398E-02
(PID.TID 0000.0001) %MON trcstat_ptracer87_min        =   2.8300201843640397E-22
(PID.TID 0000.0001) %MON trcstat_ptracer87_mean       =   6.6222467185078808E-05
(PID.TID 0000.0001) %MON trcstat_ptracer87_sd         =   8.5355120191024799E-04
(PID.TID 0000.0001) %MON trcstat_ptracer87_del2       =   1.1769889384256280E-05
(PID.TID 0000.0001) %MON trcstat_ptracer88_max        =   3.9441592086043205E-02
(PID.TID 0000.0001) %MON trcstat_ptracer88_min        =   1.0759004142768840E-40
(PID.TID 0000.0001) %MON trcstat_ptracer88_mean       =   1.9917449110002001E-04
(PID.TID 0000.0001) %MON trcstat_ptracer88_sd         =   1.6449240955052399E-03
(PID.TID 0000.0001) %MON trcstat_ptracer88_del2       =   1.2259419036672000E-05
(PID.TID 0000.0001) %MON trcstat_ptracer89_max        =   8.9003370362050804E-01
(PID.TID 0000.0001) %MON trcstat_ptracer89_min        =   4.0867672350394805E-31
(PID.TID 0000.0001) %MON trcstat_ptracer89_mean       =   1.2954623807030401E-02
(PID.TID 0000.0001) %MON trcstat_ptracer89_sd         =   5.1372757518707998E-02
(PID.TID 0000.0001) %MON trcstat_ptracer89_del2       =   4.1117527353844803E-04
(PID.TID 0000.0001) %MON trcstat_ptracer90_max        =   6.2875551366094800E-03
(PID.TID 0000.0001) %MON trcstat_ptracer90_min        =   1.4893951594054799E-26
(PID.TID 0000.0001) %MON trcstat_ptracer90_mean       =   1.2723857100579600E-05
(PID.TID 0000.0001) %MON trcstat_ptracer90_sd         =   1.9879656357343201E-04
(PID.TID 0000.0001) %MON trcstat_ptracer90_del2       =   5.5465270955659195E-06
(PID.TID 0000.0001) %MON trcstat_ptracer91_max        =   6.7160809262126406E-03
(PID.TID 0000.0001) %MON trcstat_ptracer91_min        =  -5.0819751305603996E-16
(PID.TID 0000.0001) %MON trcstat_ptracer91_mean       =   1.4978125697484002E-05
(PID.TID 0000.0001) %MON trcstat_ptracer91_sd         =   2.1608478792717599E-04
(PID.TID 0000.0001) %MON trcstat_ptracer91_del2       =   5.4234963196609200E-06
(PID.TID 0000.0001) %MON trcstat_ptracer92_max        =   6.2875543795202406E-03
(PID.TID 0000.0001) %MON trcstat_ptracer92_min        =  -3.2257890776074800E-15
(PID.TID 0000.0001) %MON trcstat_ptracer92_mean       =   1.2723714757412401E-05
(PID.TID 0000.0001) %MON trcstat_ptracer92_sd         =   1.9879652240523601E-04
(PID.TID 0000.0001) %MON trcstat_ptracer92_del2       =   5.5465273533163200E-06
(PID.TID 0000.0001) %MON trcstat_ptracer93_max        =   9.7779318231866391E-02
(PID.TID 0000.0001) %MON trcstat_ptracer93_min        =   1.2000000000826800E-48
(PID.TID 0000.0001) %MON trcstat_ptracer93_mean       =   1.8980839890681600E-04
(PID.TID 0000.0001) %MON trcstat_ptracer93_sd         =   1.9098566990601599E-03
(PID.TID 0000.0001) %MON trcstat_ptracer93_del2       =   1.6031092588167601E-05
(PID.TID 0000.0001) %MON trcstat_ptracer94_max        =   8.8525918470716402E-03
(PID.TID 0000.0001) %MON trcstat_ptracer94_min        =  -1.2171296631001201E-21
(PID.TID 0000.0001) %MON trcstat_ptracer94_mean       =   2.4659671885258800E-05
(PID.TID 0000.0001) %MON trcstat_ptracer94_sd         =   3.4451638670665200E-04
(PID.TID 0000.0001) %MON trcstat_ptracer94_del2       =   4.7386781454685200E-06
(PID.TID 0000.0001) %MON trcstat_ptracer95_max        =   6.4885558152286797E-03
(PID.TID 0000.0001) %MON trcstat_ptracer95_min        =  -1.1863460412188160E-19
(PID.TID 0000.0001) %MON trcstat_ptracer95_mean       =   1.3888117644398400E-05
(PID.TID 0000.0001) %MON trcstat_ptracer95_sd         =   2.1013862043416399E-04
(PID.TID 0000.0001) %MON trcstat_ptracer95_del2       =   5.4449905361492395E-06
(PID.TID 0000.0001) %MON trcstat_ptracer96_max        =   8.3577425651905202E-01
(PID.TID 0000.0001) %MON trcstat_ptracer96_min        =   8.2139158664696407E-31
(PID.TID 0000.0001) %MON trcstat_ptracer96_mean       =   5.6466555035307599E-02
(PID.TID 0000.0001) %MON trcstat_ptracer96_sd         =   1.3259546558537999E-01
(PID.TID 0000.0001) %MON trcstat_ptracer96_del2       =   4.3168497783822000E-04
(PID.TID 0000.0001) %MON trcstat_ptracer97_max        =   1.0126026589248481E+01
(PID.TID 0000.0001) %MON trcstat_ptracer97_min        =   1.0392950362084080E-20
(PID.TID 0000.0001) %MON trcstat_ptracer97_mean       =   2.0380324698912000E-01
(PID.TID 0000.0001) %MON trcstat_ptracer97_sd         =   8.9779252152024003E-01
(PID.TID 0000.0001) %MON trcstat_ptracer97_del2       =   3.8640861797428800E-03
(PID.TID 0000.0001) %MON exf_tsnumber                 =                188388
(PID.TID 0000.0001) %MON exf_time_sec                 =   2.2606560000000E+08
(PID.TID 0000.0001) %MON exf_ustress_max              =   2.9394391776597E-01
(PID.TID 0000.0001) %MON exf_ustress_min              =  -3.1761488519510E-02
(PID.TID 0000.0001) %MON exf_ustress_mean             =   8.5937350050417E-02
(PID.TID 0000.0001) %MON exf_ustress_sd               =   8.1385339580269E-02
(PID.TID 0000.0001) %MON exf_ustress_del2             =   6.5554613890346E-05
(PID.TID 0000.0001) %MON exf_vstress_max              =   1.7334424427601E-01
(PID.TID 0000.0001) %MON exf_vstress_min              =  -2.1185366257223E-01
(PID.TID 0000.0001) %MON exf_vstress_mean             =  -2.3236325630764E-02
(PID.TID 0000.0001) %MON exf_vstress_sd               =   8.3876164517817E-02
(PID.TID 0000.0001) %MON exf_vstress_del2             =   6.1706239331491E-05
(PID.TID 0000.0001) %MON exf_hflux_max                =   6.1541024589328E+01
(PID.TID 0000.0001) %MON exf_hflux_min                =  -1.8300501005522E+02
(PID.TID 0000.0001) %MON exf_hflux_mean               =  -8.1771934264865E+01
(PID.TID 0000.0001) %MON exf_hflux_sd                 =   5.9618160702140E+01
(PID.TID 0000.0001) %MON exf_hflux_del2               =   7.4952580086833E-01
(PID.TID 0000.0001) %MON exf_sflux_max                =   1.4030410288187E-08
(PID.TID 0000.0001) %MON exf_sflux_min                =  -3.1155560795421E-07
(PID.TID 0000.0001) %MON exf_sflux_mean               =  -1.0170357765269E-07
(PID.TID 0000.0001) %MON exf_sflux_sd                 =   7.8656188660322E-08
(PID.TID 0000.0001) %MON exf_sflux_del2               =   1.2843940037441E-09
(PID.TID 0000.0001) %MON exf_uwind_max                =   1.2317190647435E+01
(PID.TID 0000.0001) %MON exf_uwind_min                =  -2.3903590206674E+00
(PID.TID 0000.0001) %MON exf_uwind_mean               =   6.0492167415949E+00
(PID.TID 0000.0001) %MON exf_uwind_sd                 =   3.6622264422298E+00
(PID.TID 0000.0001) %MON exf_uwind_del2               =   5.3353177547235E-02
(PID.TID 0000.0001) %MON exf_vwind_max                =   1.0789716630428E+01
(PID.TID 0000.0001) %MON exf_vwind_min                =  -9.1261856514073E+00
(PID.TID 0000.0001) %MON exf_vwind_mean               =  -1.3315521434182E+00
(PID.TID 0000.0001) %MON exf_vwind_sd                 =   5.5914773814023E+00
(PID.TID 0000.0001) %MON exf_vwind_del2               =   4.9788827979912E-02
(PID.TID 0000.0001) %MON exf_wspeed_max               =   1.4160725157879E+01
(PID.TID 0000.0001) %MON exf_wspeed_min               =   3.8459773364919E+00
(PID.TID 0000.0001) %MON exf_wspeed_mean              =   8.7455992974873E+00
(PID.TID 0000.0001) %MON exf_wspeed_sd                =   2.5606774584325E+00
(PID.TID 0000.0001) %MON exf_wspeed_del2              =   7.2797188189895E-02
(PID.TID 0000.0001) %MON exf_atemp_max                =   2.7988827275952E+02
(PID.TID 0000.0001) %MON exf_atemp_min                =   2.6683249899485E+02
(PID.TID 0000.0001) %MON exf_atemp_mean               =   2.7521584073435E+02
(PID.TID 0000.0001) %MON exf_atemp_sd                 =   2.5892937073678E+00
(PID.TID 0000.0001) %MON exf_atemp_del2               =   1.8775445471134E-02
(PID.TID 0000.0001) %MON exf_aqh_max                  =   6.0824245051497E-03
(PID.TID 0000.0001) %MON exf_aqh_min                  =   2.3838363815138E-03
(PID.TID 0000.0001) %MON exf_aqh_mean                 =   4.3398602863578E-03
(PID.TID 0000.0001) %MON exf_aqh_sd                   =   7.4961998284994E-04
(PID.TID 0000.0001) %MON exf_aqh_del2                 =   2.9513031600970E-05
(PID.TID 0000.0001) %MON exf_lwflux_max               =   8.1704897678893E+01
(PID.TID 0000.0001) %MON exf_lwflux_min               =   6.7007804364509E+00
(PID.TID 0000.0001) %MON exf_lwflux_mean              =   3.8521840858568E+01
(PID.TID 0000.0001) %MON exf_lwflux_sd                =   1.8708438712987E+01
(PID.TID 0000.0001) %MON exf_lwflux_del2              =   2.6747642069133E-01
(PID.TID 0000.0001) %MON exf_precip_max               =   3.1273821905608E-07
(PID.TID 0000.0001) %MON exf_precip_min               =   3.3477852854883E-11
(PID.TID 0000.0001) %MON exf_precip_mean              =   9.8075315917481E-08
(PID.TID 0000.0001) %MON exf_precip_sd                =   7.7738114954624E-08
(PID.TID 0000.0001) %MON exf_precip_del2              =   1.3141098344282E-09
(PID.TID 0000.0001) %MON exf_swflux_max               =  -9.3170662713583E+01
(PID.TID 0000.0001) %MON exf_swflux_min               =  -2.0946293795910E+02
(PID.TID 0000.0001) %MON exf_swflux_mean              =  -1.3996295759359E+02
(PID.TID 0000.0001) %MON exf_swflux_sd                =   2.9093274456611E+01
(PID.TID 0000.0001) %MON exf_swflux_del2              =   9.3316808009632E-01
(PID.TID 0000.0001) %MON exf_evap_max                 =   2.6727244315913E-08
(PID.TID 0000.0001) %MON exf_evap_min                 =  -1.4510406179073E-08
(PID.TID 0000.0001) %MON exf_evap_mean                =   5.0354480822051E-09
(PID.TID 0000.0001) %MON exf_evap_sd                  =   8.7799952520969E-09
(PID.TID 0000.0001) %MON exf_evap_del2                =   8.9452426572480E-11
(PID.TID 0000.0001) %MON exf_swdown_max               =   2.4642698583423E+02
(PID.TID 0000.0001) %MON exf_swdown_min               =   1.0961254436892E+02
(PID.TID 0000.0001) %MON exf_swdown_mean              =   1.6466230305128E+02
(PID.TID 0000.0001) %MON exf_swdown_sd                =   3.4227381713659E+01
(PID.TID 0000.0001) %MON exf_swdown_del2              =   1.0978448001133E+00
(PID.TID 0000.0001) %MON exf_lwdown_max               =   3.0646818022017E+02
(PID.TID 0000.0001) %MON exf_lwdown_min               =   2.4299730831545E+02
(PID.TID 0000.0001) %MON exf_lwdown_mean              =   2.7653909714198E+02
(PID.TID 0000.0001) %MON exf_lwdown_sd                =   1.4929120997290E+01
(PID.TID 0000.0001) %MON exf_lwdown_del2              =   2.0802790075977E+00
(PID.TID 0000.0001) %MON exf_runoff_max               =   7.4975011851692E-08
(PID.TID 0000.0001) %MON exf_runoff_min               =   0.0000000000000E+00
(PID.TID 0000.0001) %MON exf_runoff_mean              =   8.6637098174130E-09
(PID.TID 0000.0001) %MON exf_runoff_sd                =   1.9487938307725E-08
(PID.TID 0000.0001) %MON exf_runoff_del2              =   6.8076164467882E-11
(PID.TID 0000.0001) %MON exf_climsss_max              =   3.4374380765676E+01
(PID.TID 0000.0001) %MON exf_climsss_min              =   2.9702162078916E+00
(PID.TID 0000.0001) %MON exf_climsss_mean             =   1.2720684664496E+01
(PID.TID 0000.0001) %MON exf_climsss_sd               =   1.0010476552237E+01
(PID.TID 0000.0001) %MON exf_climsss_del2             =   3.2300386746811E-03
(PID.TID 0000.0001) %MON time_tsnumber                =                188389
(PID.TID 0000.0001) %MON time_secondsf                =   2.2606680000000E+08
(PID.TID 0000.0001) %MON dynstat_eta_max              =   6.6739077337177E-01
(PID.TID 0000.0001) %MON dynstat_eta_min              =   3.0675525448124E-02
(PID.TID 0000.0001) %MON dynstat_eta_mean             =   3.7231676890311E-01
(PID.TID 0000.0001) %MON dynstat_eta_sd               =   1.5399183816944E-01
(PID.TID 0000.0001) %MON dynstat_eta_del2             =   3.3763504924091E-04
(PID.TID 0000.0001) %MON dynstat_uvel_max             =   4.0427657839207E-01
(PID.TID 0000.0001) %MON dynstat_uvel_min             =  -3.3655196722430E-01
(PID.TID 0000.0001) %MON dynstat_uvel_mean            =   6.7439972070300E-03
(PID.TID 0000.0001) %MON dynstat_uvel_sd              =   6.1690881997097E-02
(PID.TID 0000.0001) %MON dynstat_uvel_del2            =   9.6636766508009E-04
(PID.TID 0000.0001) %MON dynstat_vvel_max             =   2.6916656574659E-01
(PID.TID 0000.0001) %MON dynstat_vvel_min             =  -4.5081903394335E-01
(PID.TID 0000.0001) %MON dynstat_vvel_mean            =   2.0504005403250E-03
(PID.TID 0000.0001) %MON dynstat_vvel_sd              =   6.4368072125081E-02
(PID.TID 0000.0001) %MON dynstat_vvel_del2            =   1.1524019503824E-03
(PID.TID 0000.0001) %MON dynstat_wvel_max             =   4.9719185139671E-04
(PID.TID 0000.0001) %MON dynstat_wvel_min             =  -5.0624886606828E-04
(PID.TID 0000.0001) %MON dynstat_wvel_mean            =  -2.6297873252594E-06
(PID.TID 0000.0001) %MON dynstat_wvel_sd              =   7.5567591105548E-05
(PID.TID 0000.0001) %MON dynstat_wvel_del2            =   2.0394041233718E-06
(PID.TID 0000.0001) %MON dynstat_theta_max            =   7.9699950461211E+00
(PID.TID 0000.0001) %MON dynstat_theta_min            =  -1.6134226791279E+00
(PID.TID 0000.0001) %MON dynstat_theta_mean           =   3.7801369357867E+00
(PID.TID 0000.0001) %MON dynstat_theta_sd             =   2.2016206706930E+00
(PID.TID 0000.0001) %MON dynstat_theta_del2           =   6.0389194781325E-03
(PID.TID 0000.0001) %MON dynstat_salt_max             =   3.4927789890300E+01
(PID.TID 0000.0001) %MON dynstat_salt_min             =   5.6522079502424E+00
(PID.TID 0000.0001) %MON dynstat_salt_mean            =   1.5353300320654E+01
(PID.TID 0000.0001) %MON dynstat_salt_sd              =   1.1951757719852E+01
(PID.TID 0000.0001) %MON dynstat_salt_del2            =   3.5920630840357E-03
(PID.TID 0000.0001) %MON forcing_qnet_max             =   4.2608809865052E+02
(PID.TID 0000.0001) %MON forcing_qnet_min             =  -1.8300501005522E+02
(PID.TID 0000.0001) %MON forcing_qnet_mean            =  -6.4364034466141E+01
(PID.TID 0000.0001) %MON forcing_qnet_sd              =   6.3270439403057E+01
(PID.TID 0000.0001) %MON forcing_qnet_del2            =   1.6067867761529E+00
(PID.TID 0000.0001) %MON forcing_qsw_max              =   0.0000000000000E+00
(PID.TID 0000.0001) %MON forcing_qsw_min              =  -2.0946293795910E+02
(PID.TID 0000.0001) %MON forcing_qsw_mean             =  -1.1357354970359E+02
(PID.TID 0000.0001) %MON forcing_qsw_sd               =   6.3108938443044E+01
(PID.TID 0000.0001) %MON forcing_qsw_del2             =   5.2356272881948E-01
(PID.TID 0000.0001) %MON forcing_empmr_max            =   4.4103518592871E-05
(PID.TID 0000.0001) %MON forcing_empmr_min            =  -1.6106471196477E-03
(PID.TID 0000.0001) %MON forcing_empmr_mean           =  -1.0311617964860E-04
(PID.TID 0000.0001) %MON forcing_empmr_sd             =   1.1774771410081E-04
(PID.TID 0000.0001) %MON forcing_empmr_del2           =   5.0219648308642E-06
(PID.TID 0000.0001) %MON forcing_fu_max               =   2.9264759531240E-01
(PID.TID 0000.0001) %MON forcing_fu_min               =  -8.9097431622272E-02
(PID.TID 0000.0001) %MON forcing_fu_mean              =   8.6474171419049E-02
(PID.TID 0000.0001) %MON forcing_fu_sd                =   8.4852611456677E-02
(PID.TID 0000.0001) %MON forcing_fu_del2              =   3.0552332311353E-04
(PID.TID 0000.0001) %MON forcing_fv_max               =   1.6024261412379E-01
(PID.TID 0000.0001) %MON forcing_fv_min               =  -2.1173279725226E-01
(PID.TID 0000.0001) %MON forcing_fv_mean              =  -3.6188983438534E-02
(PID.TID 0000.0001) %MON forcing_fv_sd                =   6.9804120279281E-02
(PID.TID 0000.0001) %MON forcing_fv_del2              =   3.1376901788290E-04
(PID.TID 0000.0001) %MON advcfl_uvel_max              =   2.3209290608539E-02
(PID.TID 0000.0001) %MON advcfl_vvel_max              =   3.3115243422525E-02
(PID.TID 0000.0001) %MON advcfl_wvel_max              =   5.9663022167605E-02
(PID.TID 0000.0001) %MON advcfl_W_hf_max              =   5.9663022167605E-02
(PID.TID 0000.0001) %MON pe_b_mean                    =   1.3735225265299E-02
(PID.TID 0000.0001) %MON ke_max                       =   1.1040936887650E-01
(PID.TID 0000.0001) %MON ke_mean                      =   3.2314593333336E-03
(PID.TID 0000.0001) %MON ke_vol                       =   2.7634533915294E+13
(PID.TID 0000.0001) %MON vort_r_min                   =  -3.7118806268861E-05
(PID.TID 0000.0001) %MON vort_r_max                   =   3.2860433362046E-05
(PID.TID 0000.0001) %MON vort_a_mean                  =   1.2397552904774E-04
(PID.TID 0000.0001) %MON vort_a_sd                    =   6.2859746485534E-06
(PID.TID 0000.0001) %MON vort_p_mean                  =   1.7325641031781E-04
(PID.TID 0000.0001) %MON vort_p_sd                    =   1.0960951784805E-04
(PID.TID 0000.0001) %MON surfExpan_theta_mean         =  -6.9516215916175E-07
(PID.TID 0000.0001) %MON surfExpan_salt_mean          =   1.3599550467716E-06
(PID.TID 0000.0001) %MON obc_W_uVel_max               =   7.0330339349901E-02
(PID.TID 0000.0001) %MON obc_W_uVel_min               =  -1.2529555313121E-02
(PID.TID 0000.0001) %MON obc_W_uVel_mean              =   2.2512043378253E-02
(PID.TID 0000.0001) %MON obc_W_uVel_sd                =   2.5884347187124E-02
(PID.TID 0000.0001) %MON obc_W_uVel_Int               =   4.7346263828588E+04
(PID.TID 0000.0001) %MON obc_N_vVel_max               =   1.8571503468550E-01
(PID.TID 0000.0001) %MON obc_N_vVel_min               =  -2.5383893785174E-01
(PID.TID 0000.0001) %MON obc_N_vVel_mean              =   1.5196918494238E-03
(PID.TID 0000.0001) %MON obc_N_vVel_sd                =   8.5437537050353E-02
(PID.TID 0000.0001) %MON obc_N_vVel_Int               =   4.7676542931689E+04
(PID.TID 0000.0001) %MON seaice_tsnumber              =                188389
(PID.TID 0000.0001) %MON seaice_time_sec              =   2.2606680000000E+08
(PID.TID 0000.0001) %MON seaice_uice_max              =   5.8515150494270E-01
(PID.TID 0000.0001) %MON seaice_uice_min              =  -2.5886001217235E-01
(PID.TID 0000.0001) %MON seaice_uice_mean             =   1.2025880627704E-01
(PID.TID 0000.0001) %MON seaice_uice_sd               =   1.1231224998279E-01
(PID.TID 0000.0001) %MON seaice_uice_del2             =   2.8175574714443E-03
(PID.TID 0000.0001) %MON seaice_vice_max              =   3.7906294251863E-01
(PID.TID 0000.0001) %MON seaice_vice_min              =  -5.8726179613888E-01
(PID.TID 0000.0001) %MON seaice_vice_mean             =  -6.6551239672310E-02
(PID.TID 0000.0001) %MON seaice_vice_sd               =   1.1432497547756E-01
(PID.TID 0000.0001) %MON seaice_vice_del2             =   2.9463470341384E-03
(PID.TID 0000.0001) %MON seaice_area_max              =   1.0000000000000E+00
(PID.TID 0000.0001) %MON seaice_area_min              =   0.0000000000000E+00
(PID.TID 0000.0001) %MON seaice_area_mean             =   2.2612715013108E-01
(PID.TID 0000.0001) %MON seaice_area_sd               =   3.8528175576777E-01
(PID.TID 0000.0001) %MON seaice_area_del2             =   4.4965123179404E-03
(PID.TID 0000.0001) %MON seaice_heff_max              =   1.0116090115476E+00
(PID.TID 0000.0001) %MON seaice_heff_min              =   0.0000000000000E+00
(PID.TID 0000.0001) %MON seaice_heff_mean             =   1.2506971106897E-01
(PID.TID 0000.0001) %MON seaice_heff_sd               =   2.4315272028292E-01
(PID.TID 0000.0001) %MON seaice_heff_del2             =   2.2345045032949E-03
(PID.TID 0000.0001) %MON seaice_hsnow_max             =   2.7600629229774E-01
(PID.TID 0000.0001) %MON seaice_hsnow_min             =   0.0000000000000E+00
(PID.TID 0000.0001) %MON seaice_hsnow_mean            =   3.0769228368943E-02
(PID.TID 0000.0001) %MON seaice_hsnow_sd              =   6.4230782387452E-02
(PID.TID 0000.0001) %MON seaice_hsnow_del2            =   3.7626402237710E-04
(PID.TID 0000.0001) %MON seaice_sitracer01_max        =   1.2000000000000E+03
(PID.TID 0000.0001) %MON seaice_sitracer01_min        =   0.0000000000000E+00
(PID.TID 0000.0001) %MON seaice_sitracer01_mean       =   3.4960261201290E+02
(PID.TID 0000.0001) %MON seaice_sitracer01_sd         =   5.4525328801323E+02
(PID.TID 0000.0001) %MON seaice_sitracer01_del2       =   8.7038739919080E+00
(PID.TID 0000.0001) %MON seaice_sitracer02_max        =   1.0000000000000E+00
(PID.TID 0000.0001) %MON seaice_sitracer02_min        =   0.0000000000000E+00
(PID.TID 0000.0001) %MON seaice_sitracer02_mean       =   2.9969507061539E-01
(PID.TID 0000.0001) %MON seaice_sitracer02_sd         =   4.5812436659080E-01
(PID.TID 0000.0001) %MON seaice_sitracer02_del2       =   7.3570984585979E-03
(PID.TID 0000.0001) %MON trcstat_ptracer01_max        =                      NAN
(PID.TID 0000.0001) %MON trcstat_ptracer01_min        =                      NAN
(PID.TID 0000.0001) %MON trcstat_ptracer01_mean       =                      NAN
(PID.TID 0000.0001) %MON trcstat_ptracer01_sd         =                      NAN
(PID.TID 0000.0001) %MON trcstat_ptracer01_del2       =                      NAN
(PID.TID 0000.0001) %MON trcstat_ptracer02_max        =   2.4305137575840999E-01
(PID.TID 0000.0001) %MON trcstat_ptracer02_min        =   2.2577044577390001E-07
(PID.TID 0000.0001) %MON trcstat_ptracer02_mean       =   1.3449360080332000E-02
(PID.TID 0000.0001) %MON trcstat_ptracer02_sd         =   1.7619956620531001E-02
(PID.TID 0000.0001) %MON trcstat_ptracer02_del2       =   8.4222802180806001E-04
(PID.TID 0000.0001) %MON trcstat_ptracer03_max        =   2.3339676617149001E+00
(PID.TID 0000.0001) %MON trcstat_ptracer03_min        =   3.0205735866787999E-05
(PID.TID 0000.0001) %MON trcstat_ptracer03_mean       =   1.5995987090304001E-01
(PID.TID 0000.0001) %MON trcstat_ptracer03_sd         =   1.8964186072443001E-01
(PID.TID 0000.0001) %MON trcstat_ptracer03_del2       =   7.1034394688866004E-04
(PID.TID 0000.0001) %MON trcstat_ptracer04_max        =   4.4160932384588001E+01
(PID.TID 0000.0001) %MON trcstat_ptracer04_min        =   1.4930485379834000E-02
(PID.TID 0000.0001) %MON trcstat_ptracer04_mean       =   4.5817299800636002E+00
(PID.TID 0000.0001) %MON trcstat_ptracer04_sd         =   6.6983685233430998E+00
(PID.TID 0000.0001) %MON trcstat_ptracer04_del2       =   1.2511068872280999E-02
(PID.TID 0000.0001) %MON trcstat_ptracer05_max        =   4.3206435651439001E+00
(PID.TID 0000.0001) %MON trcstat_ptracer05_min        =   3.7999514852100000E-02
(PID.TID 0000.0001) %MON trcstat_ptracer05_mean       =   5.9105006267805005E-01
(PID.TID 0000.0001) %MON trcstat_ptracer05_sd         =   5.1754466647689001E-01
(PID.TID 0000.0001) %MON trcstat_ptracer05_del2       =   8.6367196316671001E-04
(PID.TID 0000.0001) %MON trcstat_ptracer06_max        =   1.5669735835520001E+02
(PID.TID 0000.0001) %MON trcstat_ptracer06_min        =   6.2855933577144002E-02
(PID.TID 0000.0001) %MON trcstat_ptracer06_mean       =   1.4711764707132000E+01
(PID.TID 0000.0001) %MON trcstat_ptracer06_sd         =   1.7084679558099999E+01
(PID.TID 0000.0001) %MON trcstat_ptracer06_del2       =   2.7914384362429000E-02
(PID.TID 0000.0001) %MON trcstat_ptracer07_max        =   1.3876604593123999E-03
(PID.TID 0000.0001) %MON trcstat_ptracer07_min        =   5.8883013938815004E-04
(PID.TID 0000.0001) %MON trcstat_ptracer07_mean       =   1.0854240798373999E-03
(PID.TID 0000.0001) %MON trcstat_ptracer07_sd         =   1.4542936144249001E-04
(PID.TID 0000.0001) %MON trcstat_ptracer07_del2       =   4.5503845274275999E-07
(PID.TID 0000.0001) %MON trcstat_ptracer08_max        =   3.3993280949277604E+01
(PID.TID 0000.0001) %MON trcstat_ptracer08_min        =   1.0007214841389480E-05
(PID.TID 0000.0001) %MON trcstat_ptracer08_mean       =   7.0074318150465604E+00
(PID.TID 0000.0001) %MON trcstat_ptracer08_sd         =   6.8284826281556406E+00
(PID.TID 0000.0001) %MON trcstat_ptracer08_del2       =   1.7648622126860400E-02
(PID.TID 0000.0001) %MON trcstat_ptracer09_max        =   4.5324374599036998E+00
(PID.TID 0000.0001) %MON trcstat_ptracer09_min        =   1.3342953121852999E-06
(PID.TID 0000.0001) %MON trcstat_ptracer09_mean       =   9.3432424200622000E-01
(PID.TID 0000.0001) %MON trcstat_ptracer09_sd         =   9.1046435042075002E-01
(PID.TID 0000.0001) %MON trcstat_ptracer09_del2       =   2.3531496169147000E-03
(PID.TID 0000.0001) %MON trcstat_ptracer10_max        =   2.8327734124398002E-01
(PID.TID 0000.0001) %MON trcstat_ptracer10_min        =   8.3393457011578994E-08
(PID.TID 0000.0001) %MON trcstat_ptracer10_mean       =   5.8395265125388000E-02
(PID.TID 0000.0001) %MON trcstat_ptracer10_sd         =   5.6904021901297001E-02
(PID.TID 0000.0001) %MON trcstat_ptracer10_del2       =   1.4707185105717000E-04
(PID.TID 0000.0001) %MON trcstat_ptracer11_max        =   2.8327734124397998E-04
(PID.TID 0000.0001) %MON trcstat_ptracer11_min        =   8.3393457011581001E-11
(PID.TID 0000.0001) %MON trcstat_ptracer11_mean       =   5.8395265113625998E-05
(PID.TID 0000.0001) %MON trcstat_ptracer11_sd         =   5.6904021955939002E-05
(PID.TID 0000.0001) %MON trcstat_ptracer11_del2       =   1.4707185147011001E-07
(PID.TID 0000.0001) %MON trcstat_ptracer12_max        =   1.2088107956725200E+02
(PID.TID 0000.0001) %MON trcstat_ptracer12_min        =   4.0327115303685598E-07
(PID.TID 0000.0001) %MON trcstat_ptracer12_mean       =   2.4532582277728801E+00
(PID.TID 0000.0001) %MON trcstat_ptracer12_sd         =   5.8853067462523203E+00
(PID.TID 0000.0001) %MON trcstat_ptracer12_del2       =   3.5677135379187604E-02
(PID.TID 0000.0001) %MON trcstat_ptracer13_max        =   1.6117477275633998E+01
(PID.TID 0000.0001) %MON trcstat_ptracer13_min        =   5.3769487071580997E-08
(PID.TID 0000.0001) %MON trcstat_ptracer13_mean       =   3.2710109703638002E-01
(PID.TID 0000.0001) %MON trcstat_ptracer13_sd         =   7.8470756616698001E-01
(PID.TID 0000.0001) %MON trcstat_ptracer13_del2       =   4.7569513838917003E-03
(PID.TID 0000.0001) %MON trcstat_ptracer14_max        =   1.0073423297271000E+00
(PID.TID 0000.0001) %MON trcstat_ptracer14_min        =   3.3605929419737999E-09
(PID.TID 0000.0001) %MON trcstat_ptracer14_mean       =   2.0443818564774001E-02
(PID.TID 0000.0001) %MON trcstat_ptracer14_sd         =   4.9044222885436001E-02
(PID.TID 0000.0001) %MON trcstat_ptracer14_del2       =   2.9730946149323002E-04
(PID.TID 0000.0001) %MON trcstat_ptracer15_max        =   3.0560054542131002E+02
(PID.TID 0000.0001) %MON trcstat_ptracer15_min        =   9.1521257106762000E-08
(PID.TID 0000.0001) %MON trcstat_ptracer15_mean       =   2.2925730551995001E+00
(PID.TID 0000.0001) %MON trcstat_ptracer15_sd         =   1.2520156838368001E+01
(PID.TID 0000.0001) %MON trcstat_ptracer15_del2       =   5.3786917924491001E-02
(PID.TID 0000.0001) %MON trcstat_ptracer16_max        =   1.0073423297271001E-03
(PID.TID 0000.0001) %MON trcstat_ptracer16_min        =   3.3605929419737999E-12
(PID.TID 0000.0001) %MON trcstat_ptracer16_mean       =   2.0443818569383999E-05
(PID.TID 0000.0001) %MON trcstat_ptracer16_sd         =   4.9044222882395001E-05
(PID.TID 0000.0001) %MON trcstat_ptracer16_del2       =   2.9730946172080001E-07
(PID.TID 0000.0001) %MON trcstat_ptracer17_max        =                      NAN
(PID.TID 0000.0001) %MON trcstat_ptracer17_min        =                      NAN
(PID.TID 0000.0001) %MON trcstat_ptracer17_mean       =                      NAN
(PID.TID 0000.0001) %MON trcstat_ptracer17_sd         =                      NAN
(PID.TID 0000.0001) %MON trcstat_ptracer17_del2       =                      NAN
(PID.TID 0000.0001) %MON trcstat_ptracer18_max        =   6.7189927556784001E-03
(PID.TID 0000.0001) %MON trcstat_ptracer18_min        =  -2.5282282671676800E-17
(PID.TID 0000.0001) %MON trcstat_ptracer18_mean       =   1.4991810632787600E-05
(PID.TID 0000.0001) %MON trcstat_ptracer18_sd         =   2.1629000168077201E-04
(PID.TID 0000.0001) %MON trcstat_ptracer18_del2       =   5.4396608025078002E-06
(PID.TID 0000.0001) %MON trcstat_ptracer19_max        =   6.3136695105388801E-02
(PID.TID 0000.0001) %MON trcstat_ptracer19_min        =  -2.7122201105048403E-22
(PID.TID 0000.0001) %MON trcstat_ptracer19_mean       =   8.8266173199345605E-04
(PID.TID 0000.0001) %MON trcstat_ptracer19_sd         =   4.8055875417007199E-03
(PID.TID 0000.0001) %MON trcstat_ptracer19_del2       =   2.2868204386986003E-05
(PID.TID 0000.0001) %MON trcstat_ptracer20_max        =   6.7189934907601195E-03
(PID.TID 0000.0001) %MON trcstat_ptracer20_min        =   6.8476118242656001E-49
(PID.TID 0000.0001) %MON trcstat_ptracer20_mean       =   1.5007561266709200E-05
(PID.TID 0000.0001) %MON trcstat_ptracer20_sd         =   2.1628891175354400E-04
(PID.TID 0000.0001) %MON trcstat_ptracer20_del2       =   5.4396620132311197E-06
(PID.TID 0000.0001) %MON trcstat_ptracer21_max        =   1.7062639864863602E-02
(PID.TID 0000.0001) %MON trcstat_ptracer21_min        =   9.6783870722303996E-32
(PID.TID 0000.0001) %MON trcstat_ptracer21_mean       =   3.2266365334033197E-04
(PID.TID 0000.0001) %MON trcstat_ptracer21_sd         =   1.2941353390545599E-03
(PID.TID 0000.0001) %MON trcstat_ptracer21_del2       =   1.2570462606705599E-05
(PID.TID 0000.0001) %MON trcstat_ptracer22_max        =   6.3177006429504003E-03
[...]
(PID.TID 0000.0001) %MON trcstat_ptracer48_del2       =   5.0170405999509605E-06
(PID.TID 0000.0001) %MON trcstat_ptracer49_max        =   6.3157278538136397E-03
(PID.TID 0000.0001) %MON trcstat_ptracer49_min        =  -3.0894137372975999E-15
(PID.TID 0000.0001) %MON trcstat_ptracer49_mean       =   1.2822696278366400E-05
(PID.TID 0000.0001) %MON trcstat_ptracer49_sd         =   2.0013069134068801E-04
(PID.TID 0000.0001) %MON trcstat_ptracer49_del2       =   5.5669301975560798E-06
(PID.TID 0000.0001) %MON trcstat_ptracer50_max        =   6.7306200018748801E-03
(PID.TID 0000.0001) %MON trcstat_ptracer50_min        =  -5.1039529408167601E-16
(PID.TID 0000.0001) %MON trcstat_ptracer50_mean       =   1.5036676985000398E-05
(PID.TID 0000.0001) %MON trcstat_ptracer50_sd         =   2.1695206361807998E-04
(PID.TID 0000.0001) %MON trcstat_ptracer50_del2       =   5.4528435385134001E-06
(PID.TID 0000.0001) %MON trcstat_ptracer51_max        =   6.3157278537932394E-03
(PID.TID 0000.0001) %MON trcstat_ptracer51_min        =  -2.5596265560470403E-21
(PID.TID 0000.0001) %MON trcstat_ptracer51_mean       =   1.2822696316150800E-05
(PID.TID 0000.0001) %MON trcstat_ptracer51_sd         =   2.0013069133802399E-04
(PID.TID 0000.0001) %MON trcstat_ptracer51_del2       =   5.5669301975559596E-06
(PID.TID 0000.0001) %MON trcstat_ptracer52_max        =   3.5090299634496001E+00
(PID.TID 0000.0001) %MON trcstat_ptracer52_min        =   5.3533792178594403E-39
(PID.TID 0000.0001) %MON trcstat_ptracer52_mean       =   3.9787391992177200E-02
(PID.TID 0000.0001) %MON trcstat_ptracer52_sd         =   2.2088528298648000E-01
(PID.TID 0000.0001) %MON trcstat_ptracer52_del2       =   1.1295270802932720E-03
(PID.TID 0000.0001) %MON trcstat_ptracer53_max        =   6.3646411294859997E-02
(PID.TID 0000.0001) %MON trcstat_ptracer53_min        =   1.9529042022595199E-42
(PID.TID 0000.0001) %MON trcstat_ptracer53_mean       =   1.1541902295307320E-04
(PID.TID 0000.0001) %MON trcstat_ptracer53_sd         =   1.1502276823566599E-03
(PID.TID 0000.0001) %MON trcstat_ptracer53_del2       =   1.0690708120838760E-05
(PID.TID 0000.0001) %MON trcstat_ptracer54_max        =   1.3062677998143601E-02
(PID.TID 0000.0001) %MON trcstat_ptracer54_min        =   1.1920359159438241E-31
(PID.TID 0000.0001) %MON trcstat_ptracer54_mean       =   2.6579562821400000E-05
(PID.TID 0000.0001) %MON trcstat_ptracer54_sd         =   4.0187400602097602E-04
(PID.TID 0000.0001) %MON trcstat_ptracer54_del2       =   5.3345093477542799E-06
(PID.TID 0000.0001) %MON trcstat_ptracer55_max        =   9.3784580971700404E-03
(PID.TID 0000.0001) %MON trcstat_ptracer55_min        =   1.1755343298759839E-48
(PID.TID 0000.0001) %MON trcstat_ptracer55_mean       =   2.4673570013409600E-05
(PID.TID 0000.0001) %MON trcstat_ptracer55_sd         =   3.0878006607276004E-04
(PID.TID 0000.0001) %MON trcstat_ptracer55_del2       =   5.0008530240278400E-06
(PID.TID 0000.0001) %MON trcstat_ptracer56_max        =   9.2383094278900811E-03
(PID.TID 0000.0001) %MON trcstat_ptracer56_min        =  -7.4390681946992410E-30
(PID.TID 0000.0001) %MON trcstat_ptracer56_mean       =   2.4882442920212398E-05
(PID.TID 0000.0001) %MON trcstat_ptracer56_sd         =   3.5343672035385599E-04
(PID.TID 0000.0001) %MON trcstat_ptracer56_del2       =   4.7606166254647198E-06
(PID.TID 0000.0001) %MON trcstat_ptracer57_max        =   8.3449148102510400E-03
(PID.TID 0000.0001) %MON trcstat_ptracer57_min        =   7.9749369428198394E-28
(PID.TID 0000.0001) %MON trcstat_ptracer57_mean       =   1.8398861469885599E-05
(PID.TID 0000.0001) %MON trcstat_ptracer57_sd         =   2.8864827364394400E-04
(PID.TID 0000.0001) %MON trcstat_ptracer57_del2       =   4.9626953338174798E-06
(PID.TID 0000.0001) %MON trcstat_ptracer58_max        =   8.3803109225173197E-03
(PID.TID 0000.0001) %MON trcstat_ptracer58_min        =   1.1913559174519681E-48
(PID.TID 0000.0001) %MON trcstat_ptracer58_mean       =   2.0706528866505600E-05
(PID.TID 0000.0001) %MON trcstat_ptracer58_sd         =   2.6731847507774397E-04
(PID.TID 0000.0001) %MON trcstat_ptracer58_del2       =   5.2635544767080394E-06
(PID.TID 0000.0001) %MON trcstat_ptracer59_max        =   8.1286492186682397E-03
(PID.TID 0000.0001) %MON trcstat_ptracer59_min        =   1.1494762918694760E-48
(PID.TID 0000.0001) %MON trcstat_ptracer59_mean       =   2.9196375199440001E-05
(PID.TID 0000.0001) %MON trcstat_ptracer59_sd         =   3.5641522572267602E-04
(PID.TID 0000.0001) %MON trcstat_ptracer59_del2       =   4.6383612762482400E-06
(PID.TID 0000.0001) %MON trcstat_ptracer60_max        =   5.5349539619305201E-02
(PID.TID 0000.0001) %MON trcstat_ptracer60_min        =  -2.1475437762903600E-22
(PID.TID 0000.0001) %MON trcstat_ptracer60_mean       =   2.1849639854598001E-04
(PID.TID 0000.0001) %MON trcstat_ptracer60_sd         =   2.0465571671658004E-03
(PID.TID 0000.0001) %MON trcstat_ptracer60_del2       =   2.7192683413585200E-05
(PID.TID 0000.0001) %MON trcstat_ptracer61_max        =   6.5134586856329998E-03
(PID.TID 0000.0001) %MON trcstat_ptracer61_min        =   4.9242162191507998E-16
(PID.TID 0000.0001) %MON trcstat_ptracer61_mean       =   1.3982391862480801E-05
(PID.TID 0000.0001) %MON trcstat_ptracer61_sd         =   2.1136960440585600E-04
(PID.TID 0000.0001) %MON trcstat_ptracer61_del2       =   5.4653762010046796E-06
(PID.TID 0000.0001) %MON trcstat_ptracer62_max        =   6.7379585329935595E-03
(PID.TID 0000.0001) %MON trcstat_ptracer62_min        =  -6.1481025941139597E-17
(PID.TID 0000.0001) %MON trcstat_ptracer62_mean       =   1.5061832828157599E-05
(PID.TID 0000.0001) %MON trcstat_ptracer62_sd         =   2.1720008742027601E-04
(PID.TID 0000.0001) %MON trcstat_ptracer62_del2       =   5.4478283296868399E-06
(PID.TID 0000.0001) %MON trcstat_ptracer63_max        =   6.3157278537625200E-03
(PID.TID 0000.0001) %MON trcstat_ptracer63_min        =  -3.1667083405096799E-15
(PID.TID 0000.0001) %MON trcstat_ptracer63_mean       =   1.2824109602170800E-05
(PID.TID 0000.0001) %MON trcstat_ptracer63_sd         =   2.0015265951934801E-04
(PID.TID 0000.0001) %MON trcstat_ptracer63_del2       =   5.5663625083207203E-06
(PID.TID 0000.0001) %MON trcstat_ptracer64_max        =   6.4233297515692801E-03
(PID.TID 0000.0001) %MON trcstat_ptracer64_min        =  -7.6685469220636798E-23
(PID.TID 0000.0001) %MON trcstat_ptracer64_mean       =   1.3053677411009999E-05
(PID.TID 0000.0001) %MON trcstat_ptracer64_sd         =   2.0386878919186800E-04
(PID.TID 0000.0001) %MON trcstat_ptracer64_del2       =   5.5364018464907999E-06
(PID.TID 0000.0001) %MON trcstat_ptracer65_max        =   6.7379585328651596E-03
(PID.TID 0000.0001) %MON trcstat_ptracer65_min        =  -7.0363779823151999E-17
(PID.TID 0000.0001) %MON trcstat_ptracer65_mean       =   1.5061830340141200E-05
(PID.TID 0000.0001) %MON trcstat_ptracer65_sd         =   2.1720008759001599E-04
(PID.TID 0000.0001) %MON trcstat_ptracer65_del2       =   5.4478283294684400E-06
(PID.TID 0000.0001) %MON trcstat_ptracer66_max        =   6.7306200018837593E-03
(PID.TID 0000.0001) %MON trcstat_ptracer66_min        =  -3.2070499543220398E-16
(PID.TID 0000.0001) %MON trcstat_ptracer66_mean       =   1.5036676986953999E-05
(PID.TID 0000.0001) %MON trcstat_ptracer66_sd         =   2.1695206361865602E-04
(PID.TID 0000.0001) %MON trcstat_ptracer66_del2       =   5.4528435385108802E-06
(PID.TID 0000.0001) %MON trcstat_ptracer67_max        =   1.3831072444808400E-02
(PID.TID 0000.0001) %MON trcstat_ptracer67_min        =   9.3924897159742797E-29
(PID.TID 0000.0001) %MON trcstat_ptracer67_mean       =   3.0216052668897598E-05
(PID.TID 0000.0001) %MON trcstat_ptracer67_sd         =   4.2326411687866800E-04
(PID.TID 0000.0001) %MON trcstat_ptracer67_del2       =   5.5314140989004403E-06
(PID.TID 0000.0001) %MON trcstat_ptracer68_max        =   6.7573578130548000E-03
(PID.TID 0000.0001) %MON trcstat_ptracer68_min        =   1.1981314866955679E-48
(PID.TID 0000.0001) %MON trcstat_ptracer68_mean       =   1.5079952986530000E-05
(PID.TID 0000.0001) %MON trcstat_ptracer68_sd         =   2.1742533372524401E-04
(PID.TID 0000.0001) %MON trcstat_ptracer68_del2       =   5.4476396247746395E-06
(PID.TID 0000.0001) %MON trcstat_ptracer69_max        =   2.3244520856458797E+00
(PID.TID 0000.0001) %MON trcstat_ptracer69_min        =  -4.6289272300819195E-17
(PID.TID 0000.0001) %MON trcstat_ptracer69_mean       =   7.5290400946635597E-02
(PID.TID 0000.0001) %MON trcstat_ptracer69_sd         =   2.0235714559842000E-01
(PID.TID 0000.0001) %MON trcstat_ptracer69_del2       =   1.2136626538921200E-03
(PID.TID 0000.0001) %MON trcstat_ptracer70_max        =   6.5134581589575604E-03
(PID.TID 0000.0001) %MON trcstat_ptracer70_min        =  -1.6034012013721199E-16
(PID.TID 0000.0001) %MON trcstat_ptracer70_mean       =   1.3981523537136000E-05
(PID.TID 0000.0001) %MON trcstat_ptracer70_sd         =   2.1136961966300400E-04
(PID.TID 0000.0001) %MON trcstat_ptracer70_del2       =   5.4653764351880400E-06
(PID.TID 0000.0001) %MON trcstat_ptracer71_max        =   6.5147453137087193E-03
(PID.TID 0000.0001) %MON trcstat_ptracer71_min        =   5.9781308356041603E-35
(PID.TID 0000.0001) %MON trcstat_ptracer71_mean       =   1.6669165605128402E-05
(PID.TID 0000.0001) %MON trcstat_ptracer71_sd         =   2.1911732140298399E-04
(PID.TID 0000.0001) %MON trcstat_ptracer71_del2       =   5.3634908545890001E-06
(PID.TID 0000.0001) %MON trcstat_ptracer72_max        =   6.3088532102995205E-03
(PID.TID 0000.0001) %MON trcstat_ptracer72_min        =  -2.9402794343807999E-17
(PID.TID 0000.0001) %MON trcstat_ptracer72_mean       =   1.2803920244608800E-05
(PID.TID 0000.0001) %MON trcstat_ptracer72_sd         =   1.9991792918246399E-04
(PID.TID 0000.0001) %MON trcstat_ptracer72_del2       =   5.5717788468252001E-06
(PID.TID 0000.0001) %MON trcstat_ptracer73_max        =   6.3032696886710397E-03
(PID.TID 0000.0001) %MON trcstat_ptracer73_min        =   8.1419290473599999E-27
(PID.TID 0000.0001) %MON trcstat_ptracer73_mean       =   1.2787946427686401E-05
(PID.TID 0000.0001) %MON trcstat_ptracer73_sd         =   1.9971662459766001E-04
(PID.TID 0000.0001) %MON trcstat_ptracer73_del2       =   5.5734246738375605E-06
(PID.TID 0000.0001) %MON trcstat_ptracer74_max        =   6.3157277741535600E-03
(PID.TID 0000.0001) %MON trcstat_ptracer74_min        =  -1.6399312758789600E-15
(PID.TID 0000.0001) %MON trcstat_ptracer74_mean       =   1.2836252292355200E-05
(PID.TID 0000.0001) %MON trcstat_ptracer74_sd         =   2.0038179366704400E-04
(PID.TID 0000.0001) %MON trcstat_ptracer74_del2       =   5.5644047082508803E-06
(PID.TID 0000.0001) %MON trcstat_ptracer75_max        =   1.1427395388471840E+01
(PID.TID 0000.0001) %MON trcstat_ptracer75_min        =   3.8980436243187600E-13
(PID.TID 0000.0001) %MON trcstat_ptracer75_mean       =   8.1009663769461604E-01
(PID.TID 0000.0001) %MON trcstat_ptracer75_sd         =   1.2400660810388400E+00
(PID.TID 0000.0001) %MON trcstat_ptracer75_del2       =   7.4637389011127991E-03
(PID.TID 0000.0001) %MON trcstat_ptracer76_max        =   6.8399628465527999E-03
(PID.TID 0000.0001) %MON trcstat_ptracer76_min        =  -1.7769309069102003E-21
(PID.TID 0000.0001) %MON trcstat_ptracer76_mean       =   1.5212283833475602E-05
(PID.TID 0000.0001) %MON trcstat_ptracer76_sd         =   2.2006451572020001E-04
(PID.TID 0000.0001) %MON trcstat_ptracer76_del2       =   5.4237741602078398E-06
(PID.TID 0000.0001) %MON trcstat_ptracer77_max        =   6.7539528040387199E-03
(PID.TID 0000.0001) %MON trcstat_ptracer77_min        =   1.0472863983558240E-48
(PID.TID 0000.0001) %MON trcstat_ptracer77_mean       =   1.7005948509689998E-05
(PID.TID 0000.0001) %MON trcstat_ptracer77_sd         =   2.4224894374088403E-04
(PID.TID 0000.0001) %MON trcstat_ptracer77_del2       =   5.1698660014844402E-06
(PID.TID 0000.0001) %MON trcstat_ptracer78_max        =   1.7672065555834802E-02
(PID.TID 0000.0001) %MON trcstat_ptracer78_min        =   3.8617873853724000E-49
(PID.TID 0000.0001) %MON trcstat_ptracer78_mean       =   6.2584903371817194E-05
(PID.TID 0000.0001) %MON trcstat_ptracer78_sd         =   6.2943656568806392E-04
(PID.TID 0000.0001) %MON trcstat_ptracer78_del2       =   5.4898654279315200E-06
(PID.TID 0000.0001) %MON trcstat_ptracer79_max        =   2.5135428679543201E+00
(PID.TID 0000.0001) %MON trcstat_ptracer79_min        =   2.6042724198503998E-33
(PID.TID 0000.0001) %MON trcstat_ptracer79_mean       =   1.5892271773496402E-02
(PID.TID 0000.0001) %MON trcstat_ptracer79_sd         =   9.9368809976000394E-02
(PID.TID 0000.0001) %MON trcstat_ptracer79_del2       =   5.7895034938733997E-04
(PID.TID 0000.0001) %MON trcstat_ptracer80_max        =   2.3372954583708000E-02
(PID.TID 0000.0001) %MON trcstat_ptracer80_min        =  -4.3001544465706798E-26
(PID.TID 0000.0001) %MON trcstat_ptracer80_mean       =   6.5187132905113209E-05
(PID.TID 0000.0001) %MON trcstat_ptracer80_sd         =   7.9940484958291192E-04
(PID.TID 0000.0001) %MON trcstat_ptracer80_del2       =   8.8059725882111985E-06
(PID.TID 0000.0001) %MON trcstat_ptracer81_max        =   6.9254209936131603E-03
(PID.TID 0000.0001) %MON trcstat_ptracer81_min        =   1.0114870433555041E-48
(PID.TID 0000.0001) %MON trcstat_ptracer81_mean       =   1.5330902383948801E-05
(PID.TID 0000.0001) %MON trcstat_ptracer81_sd         =   2.2106188646623201E-04
(PID.TID 0000.0001) %MON trcstat_ptracer81_del2       =   5.4181172481508800E-06
(PID.TID 0000.0001) %MON trcstat_ptracer82_max        =   6.3157278538180798E-03
(PID.TID 0000.0001) %MON trcstat_ptracer82_min        =  -3.0886320682737600E-15
(PID.TID 0000.0001) %MON trcstat_ptracer82_mean       =   1.2822696278388001E-05
(PID.TID 0000.0001) %MON trcstat_ptracer82_sd         =   2.0013069134095201E-04
(PID.TID 0000.0001) %MON trcstat_ptracer82_del2       =   5.5669301975534405E-06
(PID.TID 0000.0001) %MON trcstat_ptracer83_max        =   6.7481064863033997E-03
(PID.TID 0000.0001) %MON trcstat_ptracer83_min        =  -2.2534293845649601E-16
(PID.TID 0000.0001) %MON trcstat_ptracer83_mean       =   1.5145621176563999E-05
(PID.TID 0000.0001) %MON trcstat_ptracer83_sd         =   2.1852560292670800E-04
(PID.TID 0000.0001) %MON trcstat_ptracer83_del2       =   5.4319598476761597E-06
(PID.TID 0000.0001) %MON trcstat_ptracer84_max        =   6.8469527924378401E-03
(PID.TID 0000.0001) %MON trcstat_ptracer84_min        =  -1.3626434516072400E-16
(PID.TID 0000.0001) %MON trcstat_ptracer84_mean       =   1.5305944996900803E-05
(PID.TID 0000.0001) %MON trcstat_ptracer84_sd         =   2.2097271334755599E-04
(PID.TID 0000.0001) %MON trcstat_ptracer84_del2       =   5.4150411286936801E-06
(PID.TID 0000.0001) %MON trcstat_ptracer85_max        =   7.5071735437521596E+00
(PID.TID 0000.0001) %MON trcstat_ptracer85_min        =   5.5515352489039199E-28
(PID.TID 0000.0001) %MON trcstat_ptracer85_mean       =   4.3987284983651997E-01
(PID.TID 0000.0001) %MON trcstat_ptracer85_sd         =   9.5337134964562797E-01
(PID.TID 0000.0001) %MON trcstat_ptracer85_del2       =   3.5963006936505599E-03
(PID.TID 0000.0001) %MON trcstat_ptracer86_max        =   6.6878075886942006E-03
(PID.TID 0000.0001) %MON trcstat_ptracer86_min        =  -1.6307328206468400E-16
(PID.TID 0000.0001) %MON trcstat_ptracer86_mean       =   1.4266379525781599E-05
(PID.TID 0000.0001) %MON trcstat_ptracer86_sd         =   2.1605059477497601E-04
(PID.TID 0000.0001) %MON trcstat_ptracer86_del2       =   5.4249503125377599E-06
(PID.TID 0000.0001) %MON trcstat_ptracer87_max        =   2.9311069750351200E-02
(PID.TID 0000.0001) %MON trcstat_ptracer87_min        =   2.8421972429092798E-22
(PID.TID 0000.0001) %MON trcstat_ptracer87_mean       =   6.7291576307101206E-05
(PID.TID 0000.0001) %MON trcstat_ptracer87_sd         =   8.6733141469102809E-04
(PID.TID 0000.0001) %MON trcstat_ptracer87_del2       =   1.1971553413879199E-05
(PID.TID 0000.0001) %MON trcstat_ptracer88_max        =   3.8719196332826396E-02
(PID.TID 0000.0001) %MON trcstat_ptracer88_min        =   1.0759003949517600E-40
(PID.TID 0000.0001) %MON trcstat_ptracer88_mean       =   1.9696761951574799E-04
(PID.TID 0000.0001) %MON trcstat_ptracer88_sd         =   1.6264109964123600E-03
(PID.TID 0000.0001) %MON trcstat_ptracer88_del2       =   1.2077455010667600E-05
(PID.TID 0000.0001) %MON trcstat_ptracer89_max        =   8.8107557140512005E-01
(PID.TID 0000.0001) %MON trcstat_ptracer89_min        =   4.0869379136761206E-31
(PID.TID 0000.0001) %MON trcstat_ptracer89_mean       =   1.2869724789182401E-02
(PID.TID 0000.0001) %MON trcstat_ptracer89_sd         =   5.0957725107192001E-02
(PID.TID 0000.0001) %MON trcstat_ptracer89_del2       =   4.0560171168971997E-04
(PID.TID 0000.0001) %MON trcstat_ptracer90_max        =   6.3157286079301199E-03
(PID.TID 0000.0001) %MON trcstat_ptracer90_min        =   1.4895211080223199E-26
(PID.TID 0000.0001) %MON trcstat_ptracer90_mean       =   1.2822837652495200E-05
(PID.TID 0000.0001) %MON trcstat_ptracer90_sd         =   2.0013073202951998E-04
(PID.TID 0000.0001) %MON trcstat_ptracer90_del2       =   5.5669299474027603E-06
(PID.TID 0000.0001) %MON trcstat_ptracer91_max        =   6.7246601735553597E-03
(PID.TID 0000.0001) %MON trcstat_ptracer91_min        =  -5.0819751305603996E-16
(PID.TID 0000.0001) %MON trcstat_ptracer91_mean       =   1.5016161411349200E-05
(PID.TID 0000.0001) %MON trcstat_ptracer91_sd         =   2.1672626235204001E-04
(PID.TID 0000.0001) %MON trcstat_ptracer91_del2       =   5.4545025439849194E-06
(PID.TID 0000.0001) %MON trcstat_ptracer92_max        =   6.3157278537248401E-03
(PID.TID 0000.0001) %MON trcstat_ptracer92_min        =  -3.2230761919257603E-15
(PID.TID 0000.0001) %MON trcstat_ptracer92_mean       =   1.2822696278109601E-05
(PID.TID 0000.0001) %MON trcstat_ptracer92_sd         =   2.0013069133700400E-04
(PID.TID 0000.0001) %MON trcstat_ptracer92_del2       =   5.5669301975917205E-06
(PID.TID 0000.0001) %MON trcstat_ptracer93_max        =   9.6904378857971998E-02
(PID.TID 0000.0001) %MON trcstat_ptracer93_min        =   1.2000000000826800E-48
(PID.TID 0000.0001) %MON trcstat_ptracer93_mean       =   1.8853535519184001E-04
(PID.TID 0000.0001) %MON trcstat_ptracer93_sd         =   1.8935884516942799E-03
(PID.TID 0000.0001) %MON trcstat_ptracer93_del2       =   1.5861106780786798E-05
(PID.TID 0000.0001) %MON trcstat_ptracer94_max        =   8.8175321665085998E-03
(PID.TID 0000.0001) %MON trcstat_ptracer94_min        =  -1.2171219585632401E-21
(PID.TID 0000.0001) %MON trcstat_ptracer94_mean       =   2.4718079007298801E-05
(PID.TID 0000.0001) %MON trcstat_ptracer94_sd         =   3.4484077069681199E-04
(PID.TID 0000.0001) %MON trcstat_ptracer94_del2       =   4.7341594624103994E-06
(PID.TID 0000.0001) %MON trcstat_ptracer95_max        =   6.5006069688062400E-03
(PID.TID 0000.0001) %MON trcstat_ptracer95_min        =  -1.1857704007007879E-19
(PID.TID 0000.0001) %MON trcstat_ptracer95_mean       =   1.3942137098548802E-05
(PID.TID 0000.0001) %MON trcstat_ptracer95_sd         =   2.1092880256519202E-04
(PID.TID 0000.0001) %MON trcstat_ptracer95_del2       =   5.4720805871059203E-06
(PID.TID 0000.0001) %MON trcstat_ptracer96_max        =   8.3778260652292802E-01
(PID.TID 0000.0001) %MON trcstat_ptracer96_min        =   8.2681386360895204E-31
(PID.TID 0000.0001) %MON trcstat_ptracer96_mean       =   5.6501315744510394E-02
(PID.TID 0000.0001) %MON trcstat_ptracer96_sd         =   1.3278397083297599E-01
(PID.TID 0000.0001) %MON trcstat_ptracer96_del2       =   4.3207599990402001E-04
(PID.TID 0000.0001) %MON trcstat_ptracer97_max        =   1.0111071647312761E+01
(PID.TID 0000.0001) %MON trcstat_ptracer97_min        =   1.0955752561589761E-20
(PID.TID 0000.0001) %MON trcstat_ptracer97_mean       =   2.0415100305823200E-01
(PID.TID 0000.0001) %MON trcstat_ptracer97_sd         =   8.9925536423137198E-01
(PID.TID 0000.0001) %MON trcstat_ptracer97_del2       =   3.8642076862018802E-03
