(PID.TID 0000.0001) 
(PID.TID 0000.0001) // ======================================================
(PID.TID 0000.0001) //                      MITgcm UV
(PID.TID 0000.0001) //                      =========
(PID.TID 0000.0001) // ======================================================
(PID.TID 0000.0001) // execution environment starting up...
(PID.TID 0000.0001) 
(PID.TID 0000.0001) // MITgcmUV version:  checkpoint66l
(PID.TID 0000.0001) // Build user:        jahn
(PID.TID 0000.0001) // Build host:        node419
(PID.TID 0000.0001) // Build date:        Tue Nov 28 12:41:54 EST 2017
(PID.TID 0000.0001) 
(PID.TID 0000.0001) // =======================================================
(PID.TID 0000.0001) // Execution Environment parameter file "eedata"
(PID.TID 0000.0001) // =======================================================
(PID.TID 0000.0001) ># Example "eedata" file
(PID.TID 0000.0001) ># Lines beginning "#" are comments
(PID.TID 0000.0001) ># nTx - No. threads per process in X
(PID.TID 0000.0001) ># nTy - No. threads per process in Y
(PID.TID 0000.0001) > &EEPARMS
(PID.TID 0000.0001) > nTx=1,nTy=1
(PID.TID 0000.0001) > /
(PID.TID 0000.0001) ># Note: Some systems use & as the
(PID.TID 0000.0001) ># namelist terminator. Other systems
(PID.TID 0000.0001) ># use a / character (as shown here).
(PID.TID 0000.0001) 
(PID.TID 0000.0001) // =======================================================
(PID.TID 0000.0001) // Computational Grid Specification ( see files "SIZE.h" )
(PID.TID 0000.0001) //                                  ( and "eedata"       )
(PID.TID 0000.0001) // =======================================================
(PID.TID 0000.0001)      nPx =    1 ; /* No. processes in X */
(PID.TID 0000.0001)      nPy =    1 ; /* No. processes in Y */
(PID.TID 0000.0001)      nSx =    1 ; /* No. tiles in X per process */
(PID.TID 0000.0001)      nSy =    1 ; /* No. tiles in Y per process */
(PID.TID 0000.0001)      sNx =    1 ; /* Tile size in X */
(PID.TID 0000.0001)      sNy =    1 ; /* Tile size in Y */
(PID.TID 0000.0001)      OLx =    2 ; /* Tile overlap distance in X */
(PID.TID 0000.0001)      OLy =    2 ; /* Tile overlap distance in Y */
(PID.TID 0000.0001)      nTx =    1 ; /* No. threads in X per process */
(PID.TID 0000.0001)      nTy =    1 ; /* No. threads in Y per process */
(PID.TID 0000.0001)       Nr =   35 ; /* No. levels in the vertical   */
(PID.TID 0000.0001)       Nx =    1 ; /* Total domain size in X ( = nPx*nSx*sNx ) */
(PID.TID 0000.0001)       Ny =    1 ; /* Total domain size in Y ( = nPy*nSy*sNy ) */
(PID.TID 0000.0001)   nTiles =    1 ; /* Total no. tiles per process ( = nSx*nSy ) */
(PID.TID 0000.0001)   nProcs =    1 ; /* Total no. processes ( = nPx*nPy ) */
(PID.TID 0000.0001) nThreads =    1 ; /* Total no. threads per process ( = nTx*nTy ) */
(PID.TID 0000.0001) usingMPI =    F ; /* Flag used to control whether MPI is in use */
(PID.TID 0000.0001)                   /*  note: To execute a program with MPI calls */
(PID.TID 0000.0001)                   /*  it must be launched appropriately e.g     */
(PID.TID 0000.0001)                   /*  "mpirun -np 64 ......"                    */
(PID.TID 0000.0001) useCoupler=    F ;/* Flag used to control communications with   */
(PID.TID 0000.0001)                   /*  other model components, through a coupler */
(PID.TID 0000.0001) debugMode =    F ; /* print debug msg. (sequence of S/R calls)  */
(PID.TID 0000.0001) printMapIncludesZeros=    F ; /* print zeros in Std.Output maps */
(PID.TID 0000.0001) maxLengthPrt1D=   65 /* maxLength of 1D array printed to StdOut */
(PID.TID 0000.0001) 
(PID.TID 0000.0001) // ======================================================
(PID.TID 0000.0001) // Mapping of tiles to threads
(PID.TID 0000.0001) // ======================================================
(PID.TID 0000.0001) // -o- Thread   1, tiles (   1:   1,   1:   1)
(PID.TID 0000.0001) 
(PID.TID 0000.0001) // ======================================================
(PID.TID 0000.0001) // Tile <-> Tile connectvity table
(PID.TID 0000.0001) // ======================================================
(PID.TID 0000.0001) // Tile number: 000001 (process no. = 000000)
(PID.TID 0000.0001) //        WEST: Tile = 000001, Process = 000000, Comm = put
(PID.TID 0000.0001) //                bi = 000001, bj = 000001
(PID.TID 0000.0001) //        EAST: Tile = 000001, Process = 000000, Comm = put
(PID.TID 0000.0001) //                bi = 000001, bj = 000001
(PID.TID 0000.0001) //       SOUTH: Tile = 000001, Process = 000000, Comm = put
(PID.TID 0000.0001) //                bi = 000001, bj = 000001
(PID.TID 0000.0001) //       NORTH: Tile = 000001, Process = 000000, Comm = put
(PID.TID 0000.0001) //                bi = 000001, bj = 000001
(PID.TID 0000.0001) 
(PID.TID 0000.0001)  INI_PARMS: opening model parameter file "data"
(PID.TID 0000.0001)  OPEN_COPY_DATA_FILE: opening file data
(PID.TID 0000.0001) // =======================================================
(PID.TID 0000.0001) // Removing comments from "data"
(PID.TID 0000.0001) // =======================================================
(PID.TID 0000.0001)    1 &PARM01
(PID.TID 0000.0001)    2 tRef= 26.5, 26.1, 26., 25.5, 25.4, 24.9, 24.5, 24.0, 23.7,
(PID.TID 0000.0001)    3       23.3, 23.1, 22.8, 22.5, 22.1, 21.6, 20.6, 19.5, 18.4,
(PID.TID 0000.0001)    4       17.3, 16.6, 15.5, 14.6, 13.8, 13.1, 11.6, 10.1, 7.7,
(PID.TID 0000.0001)    5       5.3, 4.1, 3.7, 3.7, 3.4, 3.0, 2.8, 2.6,
(PID.TID 0000.0001)    6 sRef= 35*35.00,
(PID.TID 0000.0001)    7 no_slip_sides=.false.,
(PID.TID 0000.0001)    8 no_slip_bottom=.TRUE.,
(PID.TID 0000.0001)    9 viscAz=0.e0,
(PID.TID 0000.0001)   10 viscAh=0.e0,
(PID.TID 0000.0001)   11 diffKhT=1.E2,
(PID.TID 0000.0001)   12 diffKzT=1.E-4,
(PID.TID 0000.0001)   13 diffKhS=0.D0,
(PID.TID 0000.0001)   14 diffKzS=0.D0,
(PID.TID 0000.0001)   15 beta=1.E-11,
(PID.TID 0000.0001)   16 tAlpha=2.E-4,
(PID.TID 0000.0001)   17 sBeta =7.4E-4,
(PID.TID 0000.0001)   18 gravity=9.81,
(PID.TID 0000.0001)   19 gBaro=9.81,
(PID.TID 0000.0001)   20 rigidLid=.TRUE.,
(PID.TID 0000.0001)   21 implicitFreeSurface=.false.,
(PID.TID 0000.0001)   22 eosType='JMD95Z',
(PID.TID 0000.0001)   23 saltStepping=.FALSE.,
(PID.TID 0000.0001)   24 tempStepping=.TRUE.,
(PID.TID 0000.0001)   25 tempAdvection=.TRUE.,
(PID.TID 0000.0001)   26 momStepping=.FALSE.,
(PID.TID 0000.0001)   27 implicitDiffusion=.true.,
(PID.TID 0000.0001)   28 implicitViscosity=.true.,
(PID.TID 0000.0001)   29 allowFreezing=.false.,
(PID.TID 0000.0001)   30 useSingleCpuIO=.TRUE.,
(PID.TID 0000.0001)   31 useCDscheme=.FALSE.,
(PID.TID 0000.0001)   32 tempAdvScheme = 3,
(PID.TID 0000.0001)   33 saltAdvScheme = 3,
(PID.TID 0000.0001)   34 writeBinaryPrec= 64,
(PID.TID 0000.0001)   35 /
(PID.TID 0000.0001)   36
(PID.TID 0000.0001)   37 &PARM02
(PID.TID 0000.0001)   38 cg2dMaxIters=300,
(PID.TID 0000.0001)   39 cg2dTargetResidual=1.E-7,
(PID.TID 0000.0001)   40 /
(PID.TID 0000.0001)   41
(PID.TID 0000.0001)   42 &PARM03
(PID.TID 0000.0001)   43  nIter0=0,
(PID.TID 0000.0001)   44  nTimeSteps=4,
(PID.TID 0000.0001)   45  deltaTmom= 3600.,
(PID.TID 0000.0001)   46  deltaTtracer= 3600.,
(PID.TID 0000.0001)   47  deltaTClock = 3600.,
(PID.TID 0000.0001)   48  cAdjFreq    = 0.,
(PID.TID 0000.0001)   49  abEps=0.1,
(PID.TID 0000.0001)   50  pChkptFreq  = 31104000.0,
(PID.TID 0000.0001)   51  chkptFreq   = 31104000.0,
(PID.TID 0000.0001)   52  dumpFreq = 3600.,
(PID.TID 0000.0001)   53  dumpInitAndLast = .TRUE.,
(PID.TID 0000.0001)   54  taveFreq    = 2592000.,
(PID.TID 0000.0001)   55  monitorFreq = 1.,
(PID.TID 0000.0001)   56  tauThetaClimRelax=86400.,
(PID.TID 0000.0001)   57  tauSaltClimRelax=0.,
(PID.TID 0000.0001)   58  periodicExternalForcing=.TRUE.,
(PID.TID 0000.0001)   59  externForcingPeriod=2592000.,
(PID.TID 0000.0001)   60  externForcingCycle=31104000.,
(PID.TID 0000.0001)   61 /
(PID.TID 0000.0001)   62
(PID.TID 0000.0001)   63 &PARM04
(PID.TID 0000.0001)   64 usingCartesianGrid=.FALSE.,
(PID.TID 0000.0001)   65 usingSphericalPolarGrid=.TRUE.,
(PID.TID 0000.0001)   66 delX=1*1.E0,
(PID.TID 0000.0001)   67 delY=1*1.E0,
(PID.TID 0000.0001)   68 delZ=14*10, 5*15, 4*20, 2*50, 100, 2*150, 200, 300, 3*400, 2*500,
(PID.TID 0000.0001)   69 xgOrigin=0,
(PID.TID 0000.0001)   70 ygOrigin=-45.,
(PID.TID 0000.0001)   71 /
(PID.TID 0000.0001)   72
(PID.TID 0000.0001)   73 &PARM05
(PID.TID 0000.0001)   74 bathyFile=       '../input/input/bathyneg.bin',
(PID.TID 0000.0001)   75 hydrogThetaFile= '../input/input/loc1_temp_janprof.bin',
(PID.TID 0000.0001)   76 hydrogSaltFile=  '../input/input/salt_uniform.bin',
(PID.TID 0000.0001)   77 zonalWindFile=   '../input/input/loc1_taux_monsurf.bin',
(PID.TID 0000.0001)   78 meridWindFile=   '../input/input/loc1_tauy_monsurf.bin',
(PID.TID 0000.0001)   79 thetaClimFile=   '../input/input/loc1_temp_monsurf.bin',
(PID.TID 0000.0001)   80 saltClimFile=    '',
(PID.TID 0000.0001)   81 surfQFile=       '',
(PID.TID 0000.0001)   82 EmPmRFile=       '',
(PID.TID 0000.0001)   83 /
(PID.TID 0000.0001) // =======================================================
(PID.TID 0000.0001) // Parameter file "data"
(PID.TID 0000.0001) // =======================================================
(PID.TID 0000.0001) >#
(PID.TID 0000.0001) ># ******************************
(PID.TID 0000.0001) ># Model parameters
(PID.TID 0000.0001) ># Continuous equation parameters
(PID.TID 0000.0001) ># ******************************
(PID.TID 0000.0001) >&PARM01
(PID.TID 0000.0001) >tRef= 26.5, 26.1, 26., 25.5, 25.4, 24.9, 24.5, 24.0, 23.7,
(PID.TID 0000.0001) >      23.3, 23.1, 22.8, 22.5, 22.1, 21.6, 20.6, 19.5, 18.4,
(PID.TID 0000.0001) >      17.3, 16.6, 15.5, 14.6, 13.8, 13.1, 11.6, 10.1, 7.7,
(PID.TID 0000.0001) >      5.3, 4.1, 3.7, 3.7, 3.4, 3.0, 2.8, 2.6,
(PID.TID 0000.0001) >sRef= 35*35.00,
(PID.TID 0000.0001) >no_slip_sides=.false.,
(PID.TID 0000.0001) >no_slip_bottom=.TRUE.,
(PID.TID 0000.0001) >viscAz=0.e0,
(PID.TID 0000.0001) >viscAh=0.e0,
(PID.TID 0000.0001) >diffKhT=1.E2,
(PID.TID 0000.0001) >diffKzT=1.E-4,
(PID.TID 0000.0001) >diffKhS=0.D0,
(PID.TID 0000.0001) >diffKzS=0.D0,
(PID.TID 0000.0001) >beta=1.E-11,
(PID.TID 0000.0001) >tAlpha=2.E-4,
(PID.TID 0000.0001) >sBeta =7.4E-4,
(PID.TID 0000.0001) >gravity=9.81,
(PID.TID 0000.0001) >gBaro=9.81,
(PID.TID 0000.0001) >rigidLid=.TRUE.,
(PID.TID 0000.0001) >implicitFreeSurface=.false.,
(PID.TID 0000.0001) >eosType='JMD95Z',
(PID.TID 0000.0001) >saltStepping=.FALSE.,
(PID.TID 0000.0001) >tempStepping=.TRUE.,
(PID.TID 0000.0001) >tempAdvection=.TRUE.,
(PID.TID 0000.0001) >momStepping=.FALSE.,
(PID.TID 0000.0001) >implicitDiffusion=.true.,
(PID.TID 0000.0001) >implicitViscosity=.true.,
(PID.TID 0000.0001) >allowFreezing=.false.,
(PID.TID 0000.0001) >useSingleCpuIO=.TRUE.,
(PID.TID 0000.0001) >useCDscheme=.FALSE.,
(PID.TID 0000.0001) >tempAdvScheme = 3,
(PID.TID 0000.0001) >saltAdvScheme = 3,
(PID.TID 0000.0001) >writeBinaryPrec= 64,
(PID.TID 0000.0001) >/
(PID.TID 0000.0001) >
(PID.TID 0000.0001) ># **************************
(PID.TID 0000.0001) ># Elliptic solver parameters
(PID.TID 0000.0001) ># **************************
(PID.TID 0000.0001) >&PARM02
(PID.TID 0000.0001) >cg2dMaxIters=300,
(PID.TID 0000.0001) >cg2dTargetResidual=1.E-7,
(PID.TID 0000.0001) >/
(PID.TID 0000.0001) >
(PID.TID 0000.0001) ># ************************
(PID.TID 0000.0001) ># Time stepping parameters
(PID.TID 0000.0001) ># ************************
(PID.TID 0000.0001) >&PARM03
(PID.TID 0000.0001) > nIter0=0,
(PID.TID 0000.0001) >#nTimeSteps=86400,
(PID.TID 0000.0001) > nTimeSteps=4,
(PID.TID 0000.0001) > deltaTmom= 3600.,
(PID.TID 0000.0001) > deltaTtracer= 3600.,
(PID.TID 0000.0001) > deltaTClock = 3600.,
(PID.TID 0000.0001) > cAdjFreq    = 0.,
(PID.TID 0000.0001) > abEps=0.1,
(PID.TID 0000.0001) > pChkptFreq  = 31104000.0,
(PID.TID 0000.0001) > chkptFreq   = 31104000.0,
(PID.TID 0000.0001) > dumpFreq = 3600.,
(PID.TID 0000.0001) > dumpInitAndLast = .TRUE.,
(PID.TID 0000.0001) > taveFreq    = 2592000.,
(PID.TID 0000.0001) >#monitorFreq = 2592000.,
(PID.TID 0000.0001) > monitorFreq = 1.,
(PID.TID 0000.0001) > tauThetaClimRelax=86400.,
(PID.TID 0000.0001) > tauSaltClimRelax=0.,
(PID.TID 0000.0001) > periodicExternalForcing=.TRUE.,
(PID.TID 0000.0001) > externForcingPeriod=2592000.,
(PID.TID 0000.0001) > externForcingCycle=31104000.,
(PID.TID 0000.0001) >/
(PID.TID 0000.0001) >
(PID.TID 0000.0001) ># *******************
(PID.TID 0000.0001) ># Gridding parameters
(PID.TID 0000.0001) ># *******************
(PID.TID 0000.0001) >&PARM04
(PID.TID 0000.0001) >usingCartesianGrid=.FALSE.,
(PID.TID 0000.0001) >usingSphericalPolarGrid=.TRUE.,
(PID.TID 0000.0001) >delX=1*1.E0,
(PID.TID 0000.0001) >delY=1*1.E0,
(PID.TID 0000.0001) >delZ=14*10, 5*15, 4*20, 2*50, 100, 2*150, 200, 300, 3*400, 2*500,
(PID.TID 0000.0001) >xgOrigin=0,
(PID.TID 0000.0001) >ygOrigin=-45.,
(PID.TID 0000.0001) >/
(PID.TID 0000.0001) >
(PID.TID 0000.0001) ># **********
(PID.TID 0000.0001) ># Data Files
(PID.TID 0000.0001) ># **********
(PID.TID 0000.0001) >&PARM05
(PID.TID 0000.0001) >bathyFile=       '../input/input/bathyneg.bin',
(PID.TID 0000.0001) >hydrogThetaFile= '../input/input/loc1_temp_janprof.bin',
(PID.TID 0000.0001) >hydrogSaltFile=  '../input/input/salt_uniform.bin',
(PID.TID 0000.0001) >zonalWindFile=   '../input/input/loc1_taux_monsurf.bin',
(PID.TID 0000.0001) >meridWindFile=   '../input/input/loc1_tauy_monsurf.bin',
(PID.TID 0000.0001) >thetaClimFile=   '../input/input/loc1_temp_monsurf.bin',
(PID.TID 0000.0001) >saltClimFile=    '',
(PID.TID 0000.0001) >surfQFile=       '',
(PID.TID 0000.0001) >EmPmRFile=       '',
(PID.TID 0000.0001) >/
(PID.TID 0000.0001) 
(PID.TID 0000.0001)  INI_PARMS ; starts to read PARM01
(PID.TID 0000.0001)  INI_PARMS ; read PARM01 : OK
(PID.TID 0000.0001)  INI_PARMS ; starts to read PARM02
(PID.TID 0000.0001)  INI_PARMS ; read PARM02 : OK
(PID.TID 0000.0001)  INI_PARMS ; starts to read PARM03
(PID.TID 0000.0001)  INI_PARMS ; read PARM03 : OK
(PID.TID 0000.0001)  INI_PARMS ; starts to read PARM04
(PID.TID 0000.0001)  INI_PARMS ; read PARM04 : OK
(PID.TID 0000.0001)  INI_PARMS ; starts to read PARM05
(PID.TID 0000.0001)  INI_PARMS ; read PARM05 : OK
(PID.TID 0000.0001)  INI_PARMS: finished reading file "data"
(PID.TID 0000.0001)  PACKAGES_BOOT: opening data.pkg
(PID.TID 0000.0001)  OPEN_COPY_DATA_FILE: opening file data.pkg
(PID.TID 0000.0001) // =======================================================
(PID.TID 0000.0001) // Removing comments from "data.pkg"
(PID.TID 0000.0001) // =======================================================
(PID.TID 0000.0001)    1  &PACKAGES
(PID.TID 0000.0001)    2  usePTRACERS=.TRUE.
(PID.TID 0000.0001)    3  useGCHEM=.TRUE.,
(PID.TID 0000.0001)    4  useKPP=.TRUE.,
(PID.TID 0000.0001)    5  useMNC=.TRUE.,
(PID.TID 0000.0001)    6  useEXF=.TRUE.,
(PID.TID 0000.0001)    7  useCAL=.TRUE.,
(PID.TID 0000.0001)    8  useDIAGNOSTICS=.TRUE.,
(PID.TID 0000.0001)    9  /
(PID.TID 0000.0001) // =======================================================
(PID.TID 0000.0001) // Parameter file "data.pkg"
(PID.TID 0000.0001) // =======================================================
(PID.TID 0000.0001) ># Packages
(PID.TID 0000.0001) > &PACKAGES
(PID.TID 0000.0001) > usePTRACERS=.TRUE.
(PID.TID 0000.0001) > useGCHEM=.TRUE.,
(PID.TID 0000.0001) > useKPP=.TRUE.,
(PID.TID 0000.0001) > useMNC=.TRUE.,
(PID.TID 0000.0001) > useEXF=.TRUE.,
(PID.TID 0000.0001) > useCAL=.TRUE.,
(PID.TID 0000.0001) > useDIAGNOSTICS=.TRUE.,
(PID.TID 0000.0001) > /
(PID.TID 0000.0001) 
(PID.TID 0000.0001)  PACKAGES_BOOT: finished reading data.pkg
(PID.TID 0000.0001)  PACKAGES_BOOT: On/Off package Summary
 --------  pkgs with a standard "usePKG" On/Off switch in "data.pkg":  --------
 pkg/kpp                  compiled   and   used ( useKPP                   = T )
 pkg/cal                  compiled   and   used ( useCAL                   = T )
 pkg/exf                  compiled   and   used ( useEXF                   = T )
 pkg/sbo                  compiled but not used ( useSBO                   = F )
 pkg/ptracers             compiled   and   used ( usePTRACERS              = T )
 pkg/gchem                compiled   and   used ( useGCHEM                 = T )
 pkg/diagnostics          compiled   and   used ( useDiagnostics           = T )
 pkg/mnc                  compiled   and   used ( useMNC                   = T )
 -------- pkgs without standard "usePKG" On/Off switch in "data.pkg":  --------
 pkg/generic_advdiff      compiled   and   used ( useGAD                   = T )
 pkg/mom_common           compiled but not used ( momStepping              = F )
 pkg/mom_vecinv           compiled but not used ( +vectorInvariantMomentum = F )
 pkg/mom_fluxform         compiled but not used ( & not vectorInvariantMom = F )
 pkg/monitor              compiled   and   used ( monitorFreq > 0.         = T )
 pkg/timeave              compiled   and   used ( taveFreq > 0.            = T )
 pkg/debug                compiled but not used ( debugMode                = F )
 pkg/rw                   compiled   and   used
 pkg/mdsio                compiled   and   used
(PID.TID 0000.0001)  PACKAGES_BOOT: End of package Summary
(PID.TID 0000.0001) 
(PID.TID 0000.0001)  MNC_READPARMS: opening file 'data.mnc'
(PID.TID 0000.0001)  OPEN_COPY_DATA_FILE: opening file data.mnc
(PID.TID 0000.0001) // =======================================================
(PID.TID 0000.0001) // Removing comments from "data.mnc"
(PID.TID 0000.0001) // =======================================================
(PID.TID 0000.0001)    1  &MNC_01
(PID.TID 0000.0001)    2  mnc_use_outdir=.TRUE.,
(PID.TID 0000.0001)    3  mnc_outdir_str='dar1d_',
(PID.TID 0000.0001)    4  mnc_outdir_date=.TRUE.,
(PID.TID 0000.0001)    5  monitor_mnc=.FALSE.,
(PID.TID 0000.0001)    6  snapshot_mnc=.TRUE.,
(PID.TID 0000.0001)    7  timeave_mnc=.TRUE.,
(PID.TID 0000.0001)    8  pickup_read_mnc=.FALSE.,
(PID.TID 0000.0001)    9  pickup_write_mnc=.FALSE.,
(PID.TID 0000.0001)   10  /
(PID.TID 0000.0001) // =======================================================
(PID.TID 0000.0001) // Parameter file "data.mnc"
(PID.TID 0000.0001) // =======================================================
(PID.TID 0000.0001) ># Example "data.mnc" file
(PID.TID 0000.0001) ># Lines beginning "#" are comments
(PID.TID 0000.0001) > &MNC_01
(PID.TID 0000.0001) ># mnc_echo_gvtypes=.FALSE.,
(PID.TID 0000.0001) ># mnc_use_indir=.FALSE.,
(PID.TID 0000.0001) > mnc_use_outdir=.TRUE.,
(PID.TID 0000.0001) > mnc_outdir_str='dar1d_',
(PID.TID 0000.0001) > mnc_outdir_date=.TRUE.,
(PID.TID 0000.0001) > monitor_mnc=.FALSE.,
(PID.TID 0000.0001) > snapshot_mnc=.TRUE.,
(PID.TID 0000.0001) > timeave_mnc=.TRUE.,
(PID.TID 0000.0001) > pickup_read_mnc=.FALSE.,
(PID.TID 0000.0001) > pickup_write_mnc=.FALSE.,
(PID.TID 0000.0001) > /
(PID.TID 0000.0001) ># Note: Some systems use & as the
(PID.TID 0000.0001) ># namelist terminator. Other systems
(PID.TID 0000.0001) ># use a / character.
(PID.TID 0000.0001) 
(PID.TID 0000.0001)  MNC_READPARMS: finished reading data.mnc
(PID.TID 0000.0001) CAL_READPARMS: opening data.cal
(PID.TID 0000.0001)  OPEN_COPY_DATA_FILE: opening file data.cal
(PID.TID 0000.0001) // =======================================================
(PID.TID 0000.0001) // Removing comments from "data.cal"
(PID.TID 0000.0001) // =======================================================
(PID.TID 0000.0001)    1  &CAL_NML
(PID.TID 0000.0001)    2  TheCalendar='model',
(PID.TID 0000.0001)    3  startDate_1=19920101,
(PID.TID 0000.0001)    4  startDate_2=000000,
(PID.TID 0000.0001)    5  calendarDumps = .TRUE.
(PID.TID 0000.0001)    6  /
(PID.TID 0000.0001) // =======================================================
(PID.TID 0000.0001) // Parameter file "data.cal"
(PID.TID 0000.0001) // =======================================================
(PID.TID 0000.0001) >#
(PID.TID 0000.0001) ># *******************
(PID.TID 0000.0001) ># Calendar Parameters
(PID.TID 0000.0001) ># *******************
(PID.TID 0000.0001) > &CAL_NML
(PID.TID 0000.0001) > TheCalendar='model',
(PID.TID 0000.0001) > startDate_1=19920101,
(PID.TID 0000.0001) > startDate_2=000000,
(PID.TID 0000.0001) > calendarDumps = .TRUE.
(PID.TID 0000.0001) > /
(PID.TID 0000.0001) 
(PID.TID 0000.0001) CAL_READPARMS: finished reading data.cal
(PID.TID 0000.0001) EXF_READPARMS: opening data.exf
(PID.TID 0000.0001)  OPEN_COPY_DATA_FILE: opening file data.exf
(PID.TID 0000.0001) // =======================================================
(PID.TID 0000.0001) // Removing comments from "data.exf"
(PID.TID 0000.0001) // =======================================================
(PID.TID 0000.0001)    1  &EXF_NML_01
(PID.TID 0000.0001)    2  exf_albedo        = 0.15,
(PID.TID 0000.0001)    3  exf_iprec         = 32,
(PID.TID 0000.0001)    4  exf_yftype        = 'RL',
(PID.TID 0000.0001)    5  useExfYearlyFields= .TRUE.,
(PID.TID 0000.0001)    6  twoDigitYear      = .TRUE.,
(PID.TID 0000.0001)    7  useExfCheckRange  = .FALSE.,
(PID.TID 0000.0001)    8  /
(PID.TID 0000.0001)    9  &EXF_NML_02
(PID.TID 0000.0001)   10  /
(PID.TID 0000.0001)   11  &EXF_NML_03
(PID.TID 0000.0001)   12  /
(PID.TID 0000.0001)   13  &EXF_NML_04
(PID.TID 0000.0001)   14  /
(PID.TID 0000.0001)   15  &EXF_NML_OBCS
(PID.TID 0000.0001)   16  /
(PID.TID 0000.0001) // =======================================================
(PID.TID 0000.0001) // Parameter file "data.exf"
(PID.TID 0000.0001) // =======================================================
(PID.TID 0000.0001) ># *********************
(PID.TID 0000.0001) ># External Forcing Data
(PID.TID 0000.0001) ># *********************
(PID.TID 0000.0001) >#
(PID.TID 0000.0001) > &EXF_NML_01
(PID.TID 0000.0001) > exf_albedo        = 0.15,
(PID.TID 0000.0001) > exf_iprec         = 32,
(PID.TID 0000.0001) > exf_yftype        = 'RL',
(PID.TID 0000.0001) > useExfYearlyFields= .TRUE.,
(PID.TID 0000.0001) > twoDigitYear      = .TRUE.,
(PID.TID 0000.0001) > useExfCheckRange  = .FALSE.,
(PID.TID 0000.0001) > /
(PID.TID 0000.0001) >#
(PID.TID 0000.0001) > &EXF_NML_02
(PID.TID 0000.0001) > /
(PID.TID 0000.0001) >#
(PID.TID 0000.0001) > &EXF_NML_03
(PID.TID 0000.0001) > /
(PID.TID 0000.0001) >#
(PID.TID 0000.0001) > &EXF_NML_04
(PID.TID 0000.0001) > /
(PID.TID 0000.0001) >#
(PID.TID 0000.0001) > &EXF_NML_OBCS
(PID.TID 0000.0001) > /
(PID.TID 0000.0001) 
(PID.TID 0000.0001) EXF_READPARMS: reading EXF_NML_01
(PID.TID 0000.0001) EXF_READPARMS: reading EXF_NML_02
(PID.TID 0000.0001) EXF_READPARMS: reading EXF_NML_03
(PID.TID 0000.0001) EXF_READPARMS: finished reading data.exf
(PID.TID 0000.0001)  KPP_READPARMS: opening data.kpp
(PID.TID 0000.0001)  OPEN_COPY_DATA_FILE: opening file data.kpp
(PID.TID 0000.0001) // =======================================================
(PID.TID 0000.0001) // Removing comments from "data.kpp"
(PID.TID 0000.0001) // =======================================================
(PID.TID 0000.0001)    1  &KPP_PARM01
(PID.TID 0000.0001)    2  KPPmixingMaps   = .FALSE.,
(PID.TID 0000.0001)    3  KPPwriteState   = .TRUE.,
(PID.TID 0000.0001)    4  kpp_dumpFreq    = 2592000.
(PID.TID 0000.0001)    5  kpp_tavefreq    = 2592000.
(PID.TID 0000.0001)    6  Ricr            = 0.3559
(PID.TID 0000.0001)    7  Riinfty         = 0.6998
(PID.TID 0000.0001)    8  /
(PID.TID 0000.0001)    9
(PID.TID 0000.0001) // =======================================================
(PID.TID 0000.0001) // Parameter file "data.kpp"
(PID.TID 0000.0001) // =======================================================
(PID.TID 0000.0001) >#
(PID.TID 0000.0001) ># ***************
(PID.TID 0000.0001) ># Open boundaries
(PID.TID 0000.0001) ># ***************
(PID.TID 0000.0001) > &KPP_PARM01
(PID.TID 0000.0001) > KPPmixingMaps   = .FALSE.,
(PID.TID 0000.0001) > KPPwriteState   = .TRUE.,
(PID.TID 0000.0001) > kpp_dumpFreq    = 2592000.
(PID.TID 0000.0001) > kpp_tavefreq    = 2592000.
(PID.TID 0000.0001) > Ricr            = 0.3559
(PID.TID 0000.0001) > Riinfty         = 0.6998
(PID.TID 0000.0001) > /
(PID.TID 0000.0001) >
(PID.TID 0000.0001) 
(PID.TID 0000.0001)  KPP_READPARMS ; starts to read KPP_PARM01
(PID.TID 0000.0001)  KPP_READPARMS ; read KPP_PARM01 : OK
(PID.TID 0000.0001)  KPP_READPARMS: finished reading data.kpp
(PID.TID 0000.0001)  PTRACERS_READPARMS: opening data.ptracers
(PID.TID 0000.0001)  OPEN_COPY_DATA_FILE: opening file data.ptracers
(PID.TID 0000.0001) // =======================================================
(PID.TID 0000.0001) // Removing comments from "data.ptracers"
(PID.TID 0000.0001) // =======================================================
(PID.TID 0000.0001)    1  &PTRACERS_PARM01
(PID.TID 0000.0001)    2  PTRACERS_numInUse=30,
(PID.TID 0000.0001)    3  PTRACERS_Iter0= 0,
(PID.TID 0000.0001)    4  PTRACERS_advScheme= 30*33,
(PID.TID 0000.0001)    5  PTRACERS_diffKh=    30*0.E3,
(PID.TID 0000.0001)    6  PTRACERS_diffKr=    30*1.E-5,
(PID.TID 0000.0001)    7  PTRACERS_useGMRedi= 30*.FALSE. ,
(PID.TID 0000.0001)    8  PTRACERS_useKPP=    30*.TRUE.,
(PID.TID 0000.0001)    9  PTRACERS_names(1)= 'DIC',
(PID.TID 0000.0001)   10  PTRACERS_names(2)= 'NH4',
(PID.TID 0000.0001)   11  PTRACERS_names(3)= 'NO2',
(PID.TID 0000.0001)   12  PTRACERS_names(4)= 'NO3',
(PID.TID 0000.0001)   13  PTRACERS_names(5)= 'PO4',
(PID.TID 0000.0001)   14  PTRACERS_names(6)= 'SiO2',
(PID.TID 0000.0001)   15  PTRACERS_names(7)= 'FeT',
(PID.TID 0000.0001)   16  PTRACERS_names(8)= 'DOC',
(PID.TID 0000.0001)   17  PTRACERS_names(9)= 'DON',
(PID.TID 0000.0001)   18  PTRACERS_names(10)= 'DOP',
(PID.TID 0000.0001)   19  PTRACERS_names(11)= 'DOFe',
(PID.TID 0000.0001)   20  PTRACERS_names(12)= 'POC',
(PID.TID 0000.0001)   21  PTRACERS_names(13)= 'PON',
(PID.TID 0000.0001)   22  PTRACERS_names(14)= 'POP',
(PID.TID 0000.0001)   23  PTRACERS_names(15)= 'POSi',
(PID.TID 0000.0001)   24  PTRACERS_names(16)= 'POFe',
(PID.TID 0000.0001)   25  PTRACERS_names(17)= 'PIC',
(PID.TID 0000.0001)   26  PTRACERS_names(18)= 'ALK',
(PID.TID 0000.0001)   27  PTRACERS_names(19)= 'O2',
(PID.TID 0000.0001)   28  PTRACERS_names(20)= 'c1',
(PID.TID 0000.0001)   29  PTRACERS_names(21)= 'c2',
(PID.TID 0000.0001)   30  PTRACERS_names(22)= 'c3',
(PID.TID 0000.0001)   31  PTRACERS_names(23)= 'c4',
(PID.TID 0000.0001)   32  PTRACERS_names(24)= 'c5',
(PID.TID 0000.0001)   33  PTRACERS_names(25)= 'c6',
(PID.TID 0000.0001)   34  PTRACERS_names(26)= 'c7',
(PID.TID 0000.0001)   35  PTRACERS_names(27)= 'c8',
(PID.TID 0000.0001)   36  PTRACERS_names(28)= 'c9',
(PID.TID 0000.0001)   37  PTRACERS_names(29)= 'zc1',
(PID.TID 0000.0001)   38  PTRACERS_names(30)= 'zc2',
(PID.TID 0000.0001)   39  PTRACERS_units(1)='mmol C/m^3'
(PID.TID 0000.0001)   40  PTRACERS_units(2)='mmol N/m^3'
(PID.TID 0000.0001)   41  PTRACERS_units(3)='mmol N/m^3'
(PID.TID 0000.0001)   42  PTRACERS_units(4)='mmol N/m^3'
(PID.TID 0000.0001)   43  PTRACERS_units(5)='mmol P/m^3'
(PID.TID 0000.0001)   44  PTRACERS_units(6)='mmol Si/m^3'
(PID.TID 0000.0001)   45  PTRACERS_units(7)='mmol Fe/m^3'
(PID.TID 0000.0001)   46  PTRACERS_units(8)='mmol C/m^3'
(PID.TID 0000.0001)   47  PTRACERS_units(9)='mmol N/m^3'
(PID.TID 0000.0001)   48  PTRACERS_units(10)='mmol P/m^3'
(PID.TID 0000.0001)   49  PTRACERS_units(11)='mmol Fe/m^3'
(PID.TID 0000.0001)   50  PTRACERS_units(12)='mmol C/m^3'
(PID.TID 0000.0001)   51  PTRACERS_units(13)='mmol N/m^3'
(PID.TID 0000.0001)   52  PTRACERS_units(14)='mmol P/m^3'
(PID.TID 0000.0001)   53  PTRACERS_units(15)='mmol Si/m^3'
(PID.TID 0000.0001)   54  PTRACERS_units(16)='mmol Fe/m^3'
(PID.TID 0000.0001)   55  PTRACERS_units(17)='mmol C/m^3'
(PID.TID 0000.0001)   56  PTRACERS_units(18)='mmol eq/m^3'
(PID.TID 0000.0001)   57  PTRACERS_units(19)='mmol O/m^3'
(PID.TID 0000.0001)   58  PTRACERS_units(20:30)=11*'mmol C/m^3'
(PID.TID 0000.0001)   59  PTRACERS_initialFile(1)='../input/input/loc1_dic_annprof.bin',
(PID.TID 0000.0001)   60  PTRACERS_initialFile(2)='../input/input/loc1_NH4_run83_janprof.bin',
(PID.TID 0000.0001)   61  PTRACERS_initialFile(3)='../input/input/loc1_NO2_run83_janprof.bin',
(PID.TID 0000.0001)   62  PTRACERS_initialFile(4)='../input/input/loc1_nitr_janprof.bin',
(PID.TID 0000.0001)   63  PTRACERS_initialFile(5)='../input/input/loc1_phos_janprof.bin',
(PID.TID 0000.0001)   64  PTRACERS_initialFile(6)='../input/input/loc1_sil_janprof.bin',
(PID.TID 0000.0001)   65  PTRACERS_initialFile(7)='../input/input/fet_uniform.bin',
(PID.TID 0000.0001)   66  PTRACERS_ref(1:35,   8)= 35*0e0,
(PID.TID 0000.0001)   67  PTRACERS_initialFile(9)='../input/input/loc1_DON_run83_janprof.bin',
(PID.TID 0000.0001)   68  PTRACERS_initialFile(10)='../input/input/loc1_DOP_run83_janprof.bin',
(PID.TID 0000.0001)   69  PTRACERS_initialFile(11)='../input/input/loc1_DOFe_run83_janprof.bin',
(PID.TID 0000.0001)   70  PTRACERS_ref(1:35,   12)= 35*0e0,
(PID.TID 0000.0001)   71  PTRACERS_initialFile(13)='../input/input/loc1_PON_run83_janprof.bin',
(PID.TID 0000.0001)   72  PTRACERS_initialFile(14)='../input/input/loc1_POP_run83_janprof.bin',
(PID.TID 0000.0001)   73  PTRACERS_initialFile(15)='../input/input/loc1_POSi_run83_janprof.bin',
(PID.TID 0000.0001)   74  PTRACERS_initialFile(16)='../input/input/loc1_POFe_run83_janprof.bin',
(PID.TID 0000.0001)   75  PTRACERS_ref(1:35,   17)= 35*0e0,
(PID.TID 0000.0001)   76  PTRACERS_initialFile(18)='../input/input/loc1_alk_annprof.bin',
(PID.TID 0000.0001)   77  PTRACERS_initialFile(19)='../input/input/loc1_o2_janprof.bin',
(PID.TID 0000.0001)   78  PTRACERS_initialFile(20)='../input/input/loc1_biomass_run83_janprof.bin',
(PID.TID 0000.0001)   79  PTRACERS_initialFile(21)='../input/input/loc1_biomass_run83_janprof.bin',
(PID.TID 0000.0001)   80  PTRACERS_initialFile(22)='../input/input/loc1_biomass_run83_janprof.bin',
(PID.TID 0000.0001)   81  PTRACERS_initialFile(23)='../input/input/loc1_biomass_run83_janprof.bin',
(PID.TID 0000.0001)   82  PTRACERS_initialFile(24)='../input/input/loc1_biomass_run83_janprof.bin',
(PID.TID 0000.0001)   83  PTRACERS_initialFile(25)='../input/input/loc1_biomass_run83_janprof.bin',
(PID.TID 0000.0001)   84  PTRACERS_initialFile(26)='../input/input/loc1_biomass_run83_janprof.bin',
(PID.TID 0000.0001)   85  PTRACERS_initialFile(27)='../input/input/loc1_biomass_run83_janprof.bin',
(PID.TID 0000.0001)   86  PTRACERS_initialFile(28)='../input/input/loc1_biomass_run83_janprof.bin',
(PID.TID 0000.0001)   87  PTRACERS_initialFile(29)='../input/input/loc1_ZOOP_run83_janprof.bin',
(PID.TID 0000.0001)   88  PTRACERS_initialFile(30)='../input/input/loc1_ZOOP_run83_janprof.bin',
(PID.TID 0000.0001)   89  /
(PID.TID 0000.0001) // =======================================================
(PID.TID 0000.0001) // Parameter file "data.ptracers"
(PID.TID 0000.0001) // =======================================================
(PID.TID 0000.0001) > &PTRACERS_PARM01
(PID.TID 0000.0001) > PTRACERS_numInUse=30,
(PID.TID 0000.0001) > PTRACERS_Iter0= 0,
(PID.TID 0000.0001) >#
(PID.TID 0000.0001) > PTRACERS_advScheme= 30*33,
(PID.TID 0000.0001) > PTRACERS_diffKh=    30*0.E3,
(PID.TID 0000.0001) > PTRACERS_diffKr=    30*1.E-5,
(PID.TID 0000.0001) > PTRACERS_useGMRedi= 30*.FALSE. ,
(PID.TID 0000.0001) > PTRACERS_useKPP=    30*.TRUE.,
(PID.TID 0000.0001) >#
(PID.TID 0000.0001) > PTRACERS_names(1)= 'DIC',
(PID.TID 0000.0001) > PTRACERS_names(2)= 'NH4',
(PID.TID 0000.0001) > PTRACERS_names(3)= 'NO2',
(PID.TID 0000.0001) > PTRACERS_names(4)= 'NO3',
(PID.TID 0000.0001) > PTRACERS_names(5)= 'PO4',
(PID.TID 0000.0001) > PTRACERS_names(6)= 'SiO2',
(PID.TID 0000.0001) > PTRACERS_names(7)= 'FeT',
(PID.TID 0000.0001) > PTRACERS_names(8)= 'DOC',
(PID.TID 0000.0001) > PTRACERS_names(9)= 'DON',
(PID.TID 0000.0001) > PTRACERS_names(10)= 'DOP',
(PID.TID 0000.0001) > PTRACERS_names(11)= 'DOFe',
(PID.TID 0000.0001) > PTRACERS_names(12)= 'POC',
(PID.TID 0000.0001) > PTRACERS_names(13)= 'PON',
(PID.TID 0000.0001) > PTRACERS_names(14)= 'POP',
(PID.TID 0000.0001) > PTRACERS_names(15)= 'POSi',
(PID.TID 0000.0001) > PTRACERS_names(16)= 'POFe',
(PID.TID 0000.0001) > PTRACERS_names(17)= 'PIC',
(PID.TID 0000.0001) > PTRACERS_names(18)= 'ALK',
(PID.TID 0000.0001) > PTRACERS_names(19)= 'O2',
(PID.TID 0000.0001) > PTRACERS_names(20)= 'c1',
(PID.TID 0000.0001) > PTRACERS_names(21)= 'c2',
(PID.TID 0000.0001) > PTRACERS_names(22)= 'c3',
(PID.TID 0000.0001) > PTRACERS_names(23)= 'c4',
(PID.TID 0000.0001) > PTRACERS_names(24)= 'c5',
(PID.TID 0000.0001) > PTRACERS_names(25)= 'c6',
(PID.TID 0000.0001) > PTRACERS_names(26)= 'c7',
(PID.TID 0000.0001) > PTRACERS_names(27)= 'c8',
(PID.TID 0000.0001) > PTRACERS_names(28)= 'c9',
(PID.TID 0000.0001) > PTRACERS_names(29)= 'zc1',
(PID.TID 0000.0001) > PTRACERS_names(30)= 'zc2',
(PID.TID 0000.0001) >#
(PID.TID 0000.0001) > PTRACERS_units(1)='mmol C/m^3'
(PID.TID 0000.0001) > PTRACERS_units(2)='mmol N/m^3'
(PID.TID 0000.0001) > PTRACERS_units(3)='mmol N/m^3'
(PID.TID 0000.0001) > PTRACERS_units(4)='mmol N/m^3'
(PID.TID 0000.0001) > PTRACERS_units(5)='mmol P/m^3'
(PID.TID 0000.0001) > PTRACERS_units(6)='mmol Si/m^3'
(PID.TID 0000.0001) > PTRACERS_units(7)='mmol Fe/m^3'
(PID.TID 0000.0001) > PTRACERS_units(8)='mmol C/m^3'
(PID.TID 0000.0001) > PTRACERS_units(9)='mmol N/m^3'
(PID.TID 0000.0001) > PTRACERS_units(10)='mmol P/m^3'
(PID.TID 0000.0001) > PTRACERS_units(11)='mmol Fe/m^3'
(PID.TID 0000.0001) > PTRACERS_units(12)='mmol C/m^3'
(PID.TID 0000.0001) > PTRACERS_units(13)='mmol N/m^3'
(PID.TID 0000.0001) > PTRACERS_units(14)='mmol P/m^3'
(PID.TID 0000.0001) > PTRACERS_units(15)='mmol Si/m^3'
(PID.TID 0000.0001) > PTRACERS_units(16)='mmol Fe/m^3'
(PID.TID 0000.0001) > PTRACERS_units(17)='mmol C/m^3'
(PID.TID 0000.0001) > PTRACERS_units(18)='mmol eq/m^3'
(PID.TID 0000.0001) > PTRACERS_units(19)='mmol O/m^3'
(PID.TID 0000.0001) > PTRACERS_units(20:30)=11*'mmol C/m^3'
(PID.TID 0000.0001) >#
(PID.TID 0000.0001) > PTRACERS_initialFile(1)='../input/input/loc1_dic_annprof.bin',
(PID.TID 0000.0001) > PTRACERS_initialFile(2)='../input/input/loc1_NH4_run83_janprof.bin',
(PID.TID 0000.0001) > PTRACERS_initialFile(3)='../input/input/loc1_NO2_run83_janprof.bin',
(PID.TID 0000.0001) > PTRACERS_initialFile(4)='../input/input/loc1_nitr_janprof.bin',
(PID.TID 0000.0001) > PTRACERS_initialFile(5)='../input/input/loc1_phos_janprof.bin',
(PID.TID 0000.0001) > PTRACERS_initialFile(6)='../input/input/loc1_sil_janprof.bin',
(PID.TID 0000.0001) > PTRACERS_initialFile(7)='../input/input/fet_uniform.bin',
(PID.TID 0000.0001) > PTRACERS_ref(1:35,   8)= 35*0e0,
(PID.TID 0000.0001) > PTRACERS_initialFile(9)='../input/input/loc1_DON_run83_janprof.bin',
(PID.TID 0000.0001) > PTRACERS_initialFile(10)='../input/input/loc1_DOP_run83_janprof.bin',
(PID.TID 0000.0001) > PTRACERS_initialFile(11)='../input/input/loc1_DOFe_run83_janprof.bin',
(PID.TID 0000.0001) > PTRACERS_ref(1:35,   12)= 35*0e0,
(PID.TID 0000.0001) > PTRACERS_initialFile(13)='../input/input/loc1_PON_run83_janprof.bin',
(PID.TID 0000.0001) > PTRACERS_initialFile(14)='../input/input/loc1_POP_run83_janprof.bin',
(PID.TID 0000.0001) > PTRACERS_initialFile(15)='../input/input/loc1_POSi_run83_janprof.bin',
(PID.TID 0000.0001) > PTRACERS_initialFile(16)='../input/input/loc1_POFe_run83_janprof.bin',
(PID.TID 0000.0001) > PTRACERS_ref(1:35,   17)= 35*0e0,
(PID.TID 0000.0001) > PTRACERS_initialFile(18)='../input/input/loc1_alk_annprof.bin',
(PID.TID 0000.0001) > PTRACERS_initialFile(19)='../input/input/loc1_o2_janprof.bin',
(PID.TID 0000.0001) > PTRACERS_initialFile(20)='../input/input/loc1_biomass_run83_janprof.bin',
(PID.TID 0000.0001) > PTRACERS_initialFile(21)='../input/input/loc1_biomass_run83_janprof.bin',
(PID.TID 0000.0001) > PTRACERS_initialFile(22)='../input/input/loc1_biomass_run83_janprof.bin',
(PID.TID 0000.0001) > PTRACERS_initialFile(23)='../input/input/loc1_biomass_run83_janprof.bin',
(PID.TID 0000.0001) > PTRACERS_initialFile(24)='../input/input/loc1_biomass_run83_janprof.bin',
(PID.TID 0000.0001) > PTRACERS_initialFile(25)='../input/input/loc1_biomass_run83_janprof.bin',
(PID.TID 0000.0001) > PTRACERS_initialFile(26)='../input/input/loc1_biomass_run83_janprof.bin',
(PID.TID 0000.0001) > PTRACERS_initialFile(27)='../input/input/loc1_biomass_run83_janprof.bin',
(PID.TID 0000.0001) > PTRACERS_initialFile(28)='../input/input/loc1_biomass_run83_janprof.bin',
(PID.TID 0000.0001) > PTRACERS_initialFile(29)='../input/input/loc1_ZOOP_run83_janprof.bin',
(PID.TID 0000.0001) > PTRACERS_initialFile(30)='../input/input/loc1_ZOOP_run83_janprof.bin',
(PID.TID 0000.0001) > /
(PID.TID 0000.0001) 
(PID.TID 0000.0001)  PTRACERS_READPARMS: finished reading data.ptracers
(PID.TID 0000.0001)  GCHEM_READPARMS: opening data.gchem
(PID.TID 0000.0001)  OPEN_COPY_DATA_FILE: opening file data.gchem
(PID.TID 0000.0001) // =======================================================
(PID.TID 0000.0001) // Removing comments from "data.gchem"
(PID.TID 0000.0001) // =======================================================
(PID.TID 0000.0001)    1  &GCHEM_PARM01
(PID.TID 0000.0001)    2   useGUD=.TRUE.,
(PID.TID 0000.0001)    3   nsubtime=1,
(PID.TID 0000.0001)    4  /
(PID.TID 0000.0001) // =======================================================
(PID.TID 0000.0001) // Parameter file "data.gchem"
(PID.TID 0000.0001) // =======================================================
(PID.TID 0000.0001) > &GCHEM_PARM01
(PID.TID 0000.0001) >  useGUD=.TRUE.,
(PID.TID 0000.0001) >  nsubtime=1,
(PID.TID 0000.0001) > /
(PID.TID 0000.0001) 
(PID.TID 0000.0001)  GCHEM_READPARMS: finished reading data.gchem
(PID.TID 0000.0001)  GUD_READPARMS: opening data.gud
(PID.TID 0000.0001)  OPEN_COPY_DATA_FILE: opening file data.gud
(PID.TID 0000.0001) // =======================================================
(PID.TID 0000.0001) // Removing comments from "data.gud"
(PID.TID 0000.0001) // =======================================================
(PID.TID 0000.0001)    1  &GUD_FORCING_PARAMS
(PID.TID 0000.0001)    2  ironFile='../input/input/loc1_FeFlux_monsurf.bin',
(PID.TID 0000.0001)    3  PARFile='../input/input/loc1_owsm_PAR_monsurf.bin',
(PID.TID 0000.0001)    4  ironPeriod= -12.,
(PID.TID 0000.0001)    5  PARPeriod= -12.,
(PID.TID 0000.0001)    6  gud_inscal_iron= 1000.,
(PID.TID 0000.0001)    7  gud_inscal_PAR= 11.574074074074,
(PID.TID 0000.0001)    8  /
(PID.TID 0000.0001)    9  &GUD_PARAMS
(PID.TID 0000.0001)   10  diaz_ini_fac= 0.1,
(PID.TID 0000.0001)   11  gud_seed= 11231,
(PID.TID 0000.0001)   12  gud_read_phos= T,
(PID.TID 0000.0001)   13  PARmin= 1.0,
(PID.TID 0000.0001)   14  alpfe= 1.0,
(PID.TID 0000.0001)   15  freefemax = .1D-3,
(PID.TID 0000.0001)   16  depthfesed= 7000.,
(PID.TID 0000.0001)   17  scav_rat= 0.00000011574074074074074D0,
(PID.TID 0000.0001)   18  kdop=  2.3148148148148148D-07,  ! 2/100day
(PID.TID 0000.0001)   19  kdon=  2.3148148148148148D-07,  ! 2/100day
(PID.TID 0000.0001)   20  kdofe= 2.3148148148148148D-07,  ! 2/100day
(PID.TID 0000.0001)   21  kPOP=  4.6296296296296297D-07,  ! 2/50day
(PID.TID 0000.0001)   22  kPON=  4.6296296296296297D-07,  ! 2/50day
(PID.TID 0000.0001)   23  kPOFe= 4.6296296296296297D-07,  ! 2/50day
(PID.TID 0000.0001)   24  kPOSi= 7.71604938271605D-08,    ! 2/300day
(PID.TID 0000.0001)   25  /
(PID.TID 0000.0001)   26  &GUD_RADTRANS_PARAMS
(PID.TID 0000.0001)   27  /
(PID.TID 0000.0001)   28  &GUD_RANDOM_PARAMS
(PID.TID 0000.0001)   29  Smallexport= .05D0,
(PID.TID 0000.0001)   30  Bigexport= 0.3D0,
(PID.TID 0000.0001)   31  smallkinhpar= 3D-3,
(PID.TID 0000.0001)   32  oldTwoGrazers= .TRUE.,
(PID.TID 0000.0001)   33  GrazeFast= 7.2337962962962966D-06,  ! 1.25/(2*day),
(PID.TID 0000.0001)   34  GrazeSlow= 2.066798941798942D-06,   ! 1.25/(7*day),
(PID.TID 0000.0001)   35  diatomgraz= 0.85D0,
(PID.TID 0000.0001)   36  coccograz=  0.85D0,
(PID.TID 0000.0001)   37  olargegraz= 0.9D0,
(PID.TID 0000.0001)   38  ExGrazfracbig=   0.6D0,
(PID.TID 0000.0001)   39  ExGrazfracsmall= 0.3D0,
(PID.TID 0000.0001)   40  ZooexfacSmall= 0.1D0,
(PID.TID 0000.0001)   41  ZooexfacBig=   0.5D0,
(PID.TID 0000.0001)   42  val_R_PICPOC= 0.8D0,
(PID.TID 0000.0001)   43  kgrazesat_val= 10.2D0,
(PID.TID 0000.0001)   44  /
(PID.TID 0000.0001)   45  &GUD_TRAIT_PARAMS
(PID.TID 0000.0001)   46  /
(PID.TID 0000.0001) // =======================================================
(PID.TID 0000.0001) // Parameter file "data.gud"
(PID.TID 0000.0001) // =======================================================
(PID.TID 0000.0001) > &GUD_FORCING_PARAMS
(PID.TID 0000.0001) > ironFile='../input/input/loc1_FeFlux_monsurf.bin',
(PID.TID 0000.0001) > PARFile='../input/input/loc1_owsm_PAR_monsurf.bin',
(PID.TID 0000.0001) > ironPeriod= -12.,
(PID.TID 0000.0001) > PARPeriod= -12.,
(PID.TID 0000.0001) > gud_inscal_iron= 1000.,
(PID.TID 0000.0001) > gud_inscal_PAR= 11.574074074074,
(PID.TID 0000.0001) > /
(PID.TID 0000.0001) > &GUD_PARAMS
(PID.TID 0000.0001) > diaz_ini_fac= 0.1,
(PID.TID 0000.0001) > gud_seed= 11231,
(PID.TID 0000.0001) > gud_read_phos= T,
(PID.TID 0000.0001) > PARmin= 1.0,
(PID.TID 0000.0001) > alpfe= 1.0,
(PID.TID 0000.0001) > freefemax = .1D-3,
(PID.TID 0000.0001) > depthfesed= 7000.,
(PID.TID 0000.0001) > scav_rat= 0.00000011574074074074074D0,
(PID.TID 0000.0001) ># denit_no3= 104.,
(PID.TID 0000.0001) ># o2crit=200.,
(PID.TID 0000.0001) ># no3crit=1D-2,
(PID.TID 0000.0001) > kdop=  2.3148148148148148D-07,  ! 2/100day
(PID.TID 0000.0001) > kdon=  2.3148148148148148D-07,  ! 2/100day
(PID.TID 0000.0001) > kdofe= 2.3148148148148148D-07,  ! 2/100day
(PID.TID 0000.0001) > kPOP=  4.6296296296296297D-07,  ! 2/50day
(PID.TID 0000.0001) > kPON=  4.6296296296296297D-07,  ! 2/50day
(PID.TID 0000.0001) > kPOFe= 4.6296296296296297D-07,  ! 2/50day
(PID.TID 0000.0001) > kPOSi= 7.71604938271605D-08,    ! 2/300day
(PID.TID 0000.0001) ># gud_atmos_pCO2= 278D0,
(PID.TID 0000.0001) > /
(PID.TID 0000.0001) > &GUD_RADTRANS_PARAMS
(PID.TID 0000.0001) > /
(PID.TID 0000.0001) > &GUD_RANDOM_PARAMS
(PID.TID 0000.0001) > Smallexport= .05D0,
(PID.TID 0000.0001) > Bigexport= 0.3D0,
(PID.TID 0000.0001) > smallkinhpar= 3D-3,
(PID.TID 0000.0001) >#
(PID.TID 0000.0001) > oldTwoGrazers= .TRUE.,
(PID.TID 0000.0001) >#
(PID.TID 0000.0001) > GrazeFast= 7.2337962962962966D-06,  ! 1.25/(2*day),
(PID.TID 0000.0001) > GrazeSlow= 2.066798941798942D-06,   ! 1.25/(7*day),
(PID.TID 0000.0001) > diatomgraz= 0.85D0,
(PID.TID 0000.0001) > coccograz=  0.85D0,
(PID.TID 0000.0001) > olargegraz= 0.9D0,
(PID.TID 0000.0001) > ExGrazfracbig=   0.6D0,
(PID.TID 0000.0001) > ExGrazfracsmall= 0.3D0,
(PID.TID 0000.0001) > ZooexfacSmall= 0.1D0,
(PID.TID 0000.0001) > ZooexfacBig=   0.5D0,
(PID.TID 0000.0001) > val_R_PICPOC= 0.8D0,
(PID.TID 0000.0001) > kgrazesat_val= 10.2D0,
(PID.TID 0000.0001) > /
(PID.TID 0000.0001) > &GUD_TRAIT_PARAMS
(PID.TID 0000.0001) > /
(PID.TID 0000.0001) 
(PID.TID 0000.0001)  ===================================
(PID.TID 0000.0001)  DIAGNOSTICS_READPARMS: opening data.diagnostics
(PID.TID 0000.0001)  OPEN_COPY_DATA_FILE: opening file data.diagnostics
(PID.TID 0000.0001) // =======================================================
(PID.TID 0000.0001) // Removing comments from "data.diagnostics"
(PID.TID 0000.0001) // =======================================================
(PID.TID 0000.0001)    1  &diagnostics_list
(PID.TID 0000.0001)    2  filename(1)= 'gud',
(PID.TID 0000.0001)    3  frequency(1)= 3600.,
(PID.TID 0000.0001)    4  fields(1,1)= 'TRAC01  ',
(PID.TID 0000.0001)    5  fields(2,1)= 'TRAC02  ',
(PID.TID 0000.0001)    6  fields(3,1)= 'TRAC03  ',
(PID.TID 0000.0001)    7  fields(4,1)= 'TRAC04  ',
(PID.TID 0000.0001)    8  fields(5,1)= 'TRAC05  ',
(PID.TID 0000.0001)    9  fields(6,1)= 'TRAC06  ',
(PID.TID 0000.0001)   10  fields(7,1)= 'TRAC07  ',
(PID.TID 0000.0001)   11  fields(8,1)= 'TRAC08  ',
(PID.TID 0000.0001)   12  fields(9,1)= 'TRAC09  ',
(PID.TID 0000.0001)   13  fields(10,1)= 'TRAC10  ',
(PID.TID 0000.0001)   14  fields(11,1)= 'TRAC11  ',
(PID.TID 0000.0001)   15  fields(12,1)= 'TRAC12  ',
(PID.TID 0000.0001)   16  fields(13,1)= 'TRAC13  ',
(PID.TID 0000.0001)   17  fields(14,1)= 'TRAC14  ',
(PID.TID 0000.0001)   18  fields(15,1)= 'TRAC15  ',
(PID.TID 0000.0001)   19  fields(16,1)= 'TRAC16  ',
(PID.TID 0000.0001)   20  fields(17,1)= 'TRAC17  ',
(PID.TID 0000.0001)   21  fields(18,1)= 'TRAC18  ',
(PID.TID 0000.0001)   22  fields(19,1)= 'TRAC19  ',
(PID.TID 0000.0001)   23  fields(20,1)= 'TRAC20  ',
(PID.TID 0000.0001)   24  fields(21,1)= 'TRAC21  ',
(PID.TID 0000.0001)   25  fields(22,1)= 'TRAC22  ',
(PID.TID 0000.0001)   26  fields(23,1)= 'TRAC23  ',
(PID.TID 0000.0001)   27  fields(24,1)= 'TRAC24  ',
(PID.TID 0000.0001)   28  fields(25,1)= 'TRAC25  ',
(PID.TID 0000.0001)   29  fields(26,1)= 'TRAC26  ',
(PID.TID 0000.0001)   30  fields(27,1)= 'TRAC27  ',
(PID.TID 0000.0001)   31  fields(28,1)= 'TRAC28  ',
(PID.TID 0000.0001)   32  fields(29,1)= 'TRAC29  ',
(PID.TID 0000.0001)   33  fields(30,1)= 'TRAC30  ',
(PID.TID 0000.0001)   34  fields(31,1)= 'PARF    ',
(PID.TID 0000.0001)   35  fields(32,1)= 'atten   ',
(PID.TID 0000.0001)   36  fields(33,1)= 'surfPAR ',
(PID.TID 0000.0001)   37  fields(34,1)= 'exfPAR  ',
(PID.TID 0000.0001)   38  fields(35,1)= 'pH      ',
(PID.TID 0000.0001)   39  fields(36,1)= 'pCO2    ',
(PID.TID 0000.0001)   40  fields(37,1)= 'fluxCO2 ',
(PID.TID 0000.0001)   41  fields(38,1)= 'gDICsurf',
(PID.TID 0000.0001)   42  fields(39,1)= 'gALKsurf',
(PID.TID 0000.0001)   43  fields(40,1)= 'gO2surf ',
(PID.TID 0000.0001)   44  /
(PID.TID 0000.0001)   45  &diag_statis_parms
(PID.TID 0000.0001)   46  /
(PID.TID 0000.0001) // =======================================================
(PID.TID 0000.0001) // Parameter file "data.diagnostics"
(PID.TID 0000.0001) // =======================================================
(PID.TID 0000.0001) > &diagnostics_list
(PID.TID 0000.0001) > filename(1)= 'gud',
(PID.TID 0000.0001) > frequency(1)= 3600.,
(PID.TID 0000.0001) > fields(1,1)= 'TRAC01  ',
(PID.TID 0000.0001) > fields(2,1)= 'TRAC02  ',
(PID.TID 0000.0001) > fields(3,1)= 'TRAC03  ',
(PID.TID 0000.0001) > fields(4,1)= 'TRAC04  ',
(PID.TID 0000.0001) > fields(5,1)= 'TRAC05  ',
(PID.TID 0000.0001) > fields(6,1)= 'TRAC06  ',
(PID.TID 0000.0001) > fields(7,1)= 'TRAC07  ',
(PID.TID 0000.0001) > fields(8,1)= 'TRAC08  ',
(PID.TID 0000.0001) > fields(9,1)= 'TRAC09  ',
(PID.TID 0000.0001) > fields(10,1)= 'TRAC10  ',
(PID.TID 0000.0001) > fields(11,1)= 'TRAC11  ',
(PID.TID 0000.0001) > fields(12,1)= 'TRAC12  ',
(PID.TID 0000.0001) > fields(13,1)= 'TRAC13  ',
(PID.TID 0000.0001) > fields(14,1)= 'TRAC14  ',
(PID.TID 0000.0001) > fields(15,1)= 'TRAC15  ',
(PID.TID 0000.0001) > fields(16,1)= 'TRAC16  ',
(PID.TID 0000.0001) > fields(17,1)= 'TRAC17  ',
(PID.TID 0000.0001) > fields(18,1)= 'TRAC18  ',
(PID.TID 0000.0001) > fields(19,1)= 'TRAC19  ',
(PID.TID 0000.0001) > fields(20,1)= 'TRAC20  ',
(PID.TID 0000.0001) > fields(21,1)= 'TRAC21  ',
(PID.TID 0000.0001) > fields(22,1)= 'TRAC22  ',
(PID.TID 0000.0001) > fields(23,1)= 'TRAC23  ',
(PID.TID 0000.0001) > fields(24,1)= 'TRAC24  ',
(PID.TID 0000.0001) > fields(25,1)= 'TRAC25  ',
(PID.TID 0000.0001) > fields(26,1)= 'TRAC26  ',
(PID.TID 0000.0001) > fields(27,1)= 'TRAC27  ',
(PID.TID 0000.0001) > fields(28,1)= 'TRAC28  ',
(PID.TID 0000.0001) > fields(29,1)= 'TRAC29  ',
(PID.TID 0000.0001) > fields(30,1)= 'TRAC30  ',
(PID.TID 0000.0001) > fields(31,1)= 'PARF    ',
(PID.TID 0000.0001) > fields(32,1)= 'atten   ',
(PID.TID 0000.0001) > fields(33,1)= 'surfPAR ',
(PID.TID 0000.0001) > fields(34,1)= 'exfPAR  ',
(PID.TID 0000.0001) > fields(35,1)= 'pH      ',
(PID.TID 0000.0001) > fields(36,1)= 'pCO2    ',
(PID.TID 0000.0001) > fields(37,1)= 'fluxCO2 ',
(PID.TID 0000.0001) > fields(38,1)= 'gDICsurf',
(PID.TID 0000.0001) > fields(39,1)= 'gALKsurf',
(PID.TID 0000.0001) > fields(40,1)= 'gO2surf ',
(PID.TID 0000.0001) > /
(PID.TID 0000.0001) > &diag_statis_parms
(PID.TID 0000.0001) > /
(PID.TID 0000.0001) 
(PID.TID 0000.0001) S/R DIAGNOSTICS_READPARMS, read namelist "diagnostics_list": start
(PID.TID 0000.0001) S/R DIAGNOSTICS_READPARMS, read namelist "diagnostics_list": OK
(PID.TID 0000.0001) S/R DIAGNOSTICS_READPARMS, read namelist "DIAG_STATIS_PARMS": start
(PID.TID 0000.0001) S/R DIAGNOSTICS_READPARMS, read namelist "DIAG_STATIS_PARMS": OK
(PID.TID 0000.0001)  DIAGNOSTICS_READPARMS: global parameter summary:
(PID.TID 0000.0001)  dumpAtLast = /* always write time-ave diags at the end */
(PID.TID 0000.0001)                   F
(PID.TID 0000.0001)     ;
(PID.TID 0000.0001)  diag_mnc =   /* write NetCDF output files */
(PID.TID 0000.0001)                   T
(PID.TID 0000.0001)     ;
(PID.TID 0000.0001)  useMissingValue = /* put MissingValue where mask = 0 */
(PID.TID 0000.0001)                   F
(PID.TID 0000.0001)     ;
(PID.TID 0000.0001)  diagCG_maxIters = /* max number of iters in diag_cg2d */
(PID.TID 0000.0001)                     300
(PID.TID 0000.0001)     ;
(PID.TID 0000.0001)  diagCG_resTarget = /* residual target for diag_cg2d */
(PID.TID 0000.0001)                 1.000000000000000E-07
(PID.TID 0000.0001)     ;
(PID.TID 0000.0001)  diagCG_pcOffDFac = /* preconditioner off-diagonal factor */
(PID.TID 0000.0001)                 9.611687812379854E-01
(PID.TID 0000.0001)     ;
(PID.TID 0000.0001) -----------------------------------------------------
(PID.TID 0000.0001)  DIAGNOSTICS_READPARMS: active diagnostics summary:
(PID.TID 0000.0001) -----------------------------------------------------
(PID.TID 0000.0001) Creating Output Stream: gud
(PID.TID 0000.0001) Output Frequency:       3600.000000 ; Phase:           0.000000
(PID.TID 0000.0001)  Averaging Freq.:       3600.000000 , Phase:           0.000000 , Cycle:   1
(PID.TID 0000.0001)  missing value: -9.990000000000E+02
(PID.TID 0000.0001)  Levels:    will be set later
(PID.TID 0000.0001)  Fields:    TRAC01   TRAC02   TRAC03   TRAC04   TRAC05   TRAC06   TRAC07   TRAC08   TRAC09   TRAC10
(PID.TID 0000.0001)  Fields:    TRAC11   TRAC12   TRAC13   TRAC14   TRAC15   TRAC16   TRAC17   TRAC18   TRAC19   TRAC20
(PID.TID 0000.0001)  Fields:    TRAC21   TRAC22   TRAC23   TRAC24   TRAC25   TRAC26   TRAC27   TRAC28   TRAC29   TRAC30
(PID.TID 0000.0001)  Fields:    PARF     atten    surfPAR  exfPAR   pH       pCO2     fluxCO2  gDICsurf gALKsurf gO2surf
(PID.TID 0000.0001) -----------------------------------------------------
(PID.TID 0000.0001)  DIAGNOSTICS_READPARMS: statistics diags. summary:
(PID.TID 0000.0001) -----------------------------------------------------
(PID.TID 0000.0001) 
(PID.TID 0000.0001) SET_PARMS: done
(PID.TID 0000.0001) Enter INI_VERTICAL_GRID: setInterFDr=    T ; setCenterDr=    F
(PID.TID 0000.0001) %MON XC_max                       =   5.0000000000000E-01
(PID.TID 0000.0001) %MON XC_min                       =   5.0000000000000E-01
(PID.TID 0000.0001) %MON XC_mean                      =   5.0000000000000E-01
(PID.TID 0000.0001) %MON XC_sd                        =   0.0000000000000E+00
(PID.TID 0000.0001) %MON XG_max                       =   0.0000000000000E+00
(PID.TID 0000.0001) %MON XG_min                       =   0.0000000000000E+00
(PID.TID 0000.0001) %MON XG_mean                      =   0.0000000000000E+00
(PID.TID 0000.0001) %MON XG_sd                        =   0.0000000000000E+00
(PID.TID 0000.0001) %MON DXC_max                      =   7.9297382804169E+04
(PID.TID 0000.0001) %MON DXC_min                      =   7.9297382804169E+04
(PID.TID 0000.0001) %MON DXC_mean                     =   7.9297382804169E+04
(PID.TID 0000.0001) %MON DXC_sd                       =   0.0000000000000E+00
(PID.TID 0000.0001) %MON DXF_max                      =   7.9297382804169E+04
(PID.TID 0000.0001) %MON DXF_min                      =   7.9297382804169E+04
(PID.TID 0000.0001) %MON DXF_mean                     =   7.9297382804169E+04
(PID.TID 0000.0001) %MON DXF_sd                       =   0.0000000000000E+00
(PID.TID 0000.0001) %MON DXG_max                      =   7.8614345322413E+04
(PID.TID 0000.0001) %MON DXG_min                      =   7.8614345322413E+04
(PID.TID 0000.0001) %MON DXG_mean                     =   7.8614345322413E+04
(PID.TID 0000.0001) %MON DXG_sd                       =   0.0000000000000E+00
(PID.TID 0000.0001) %MON DXV_max                      =   7.8614345322413E+04
(PID.TID 0000.0001) %MON DXV_min                      =   7.8614345322413E+04
(PID.TID 0000.0001) %MON DXV_mean                     =   7.8614345322413E+04
(PID.TID 0000.0001) %MON DXV_sd                       =   0.0000000000000E+00
(PID.TID 0000.0001) %MON YC_max                       =  -4.4500000000000E+01
(PID.TID 0000.0001) %MON YC_min                       =  -4.4500000000000E+01
(PID.TID 0000.0001) %MON YC_mean                      =  -4.4500000000000E+01
(PID.TID 0000.0001) %MON YC_sd                        =   0.0000000000000E+00
(PID.TID 0000.0001) %MON YG_max                       =  -4.5000000000000E+01
(PID.TID 0000.0001) %MON YG_min                       =  -4.5000000000000E+01
(PID.TID 0000.0001) %MON YG_mean                      =  -4.5000000000000E+01
(PID.TID 0000.0001) %MON YG_sd                        =   0.0000000000000E+00
(PID.TID 0000.0001) %MON DYC_max                      =   1.1117747335204E+05
(PID.TID 0000.0001) %MON DYC_min                      =   1.1117747335204E+05
(PID.TID 0000.0001) %MON DYC_mean                     =   1.1117747335204E+05
(PID.TID 0000.0001) %MON DYC_sd                       =   0.0000000000000E+00
(PID.TID 0000.0001) %MON DYF_max                      =   1.1117747335204E+05
(PID.TID 0000.0001) %MON DYF_min                      =   1.1117747335204E+05
(PID.TID 0000.0001) %MON DYF_mean                     =   1.1117747335204E+05
(PID.TID 0000.0001) %MON DYF_sd                       =   0.0000000000000E+00
(PID.TID 0000.0001) %MON DYG_max                      =   1.1117747335204E+05
(PID.TID 0000.0001) %MON DYG_min                      =   1.1117747335204E+05
(PID.TID 0000.0001) %MON DYG_mean                     =   1.1117747335204E+05
(PID.TID 0000.0001) %MON DYG_sd                       =   0.0000000000000E+00
(PID.TID 0000.0001) %MON DYU_max                      =   1.1117747335204E+05
(PID.TID 0000.0001) %MON DYU_min                      =   1.1117747335204E+05
(PID.TID 0000.0001) %MON DYU_mean                     =   1.1117747335204E+05
(PID.TID 0000.0001) %MON DYU_sd                       =   0.0000000000000E+00
(PID.TID 0000.0001) %MON RA_max                       =   8.8159707668415E+09
(PID.TID 0000.0001) %MON RA_min                       =   8.8159707668415E+09
(PID.TID 0000.0001) %MON RA_mean                      =   8.8159707668415E+09
(PID.TID 0000.0001) %MON RA_sd                        =   0.0000000000000E+00
(PID.TID 0000.0001) %MON RAW_max                      =   8.8159707668415E+09
(PID.TID 0000.0001) %MON RAW_min                      =   8.8159707668415E+09
(PID.TID 0000.0001) %MON RAW_mean                     =   8.8159707668415E+09
(PID.TID 0000.0001) %MON RAW_sd                       =   0.0000000000000E+00
(PID.TID 0000.0001) %MON RAS_max                      =   8.7400333492513E+09
(PID.TID 0000.0001) %MON RAS_min                      =   8.7400333492513E+09
(PID.TID 0000.0001) %MON RAS_mean                     =   8.7400333492513E+09
(PID.TID 0000.0001) %MON RAS_sd                       =   0.0000000000000E+00
(PID.TID 0000.0001) %MON RAZ_max                      =   8.7400333492513E+09
(PID.TID 0000.0001) %MON RAZ_min                      =   8.7400333492513E+09
(PID.TID 0000.0001) %MON RAZ_mean                     =   8.7400333492513E+09
(PID.TID 0000.0001) %MON RAZ_sd                       =   0.0000000000000E+00
(PID.TID 0000.0001) %MON AngleCS_max                  =   1.0000000000000E+00
(PID.TID 0000.0001) %MON AngleCS_min                  =   1.0000000000000E+00
(PID.TID 0000.0001) %MON AngleCS_mean                 =   1.0000000000000E+00
(PID.TID 0000.0001) %MON AngleCS_sd                   =   0.0000000000000E+00
(PID.TID 0000.0001) %MON AngleSN_max                  =   0.0000000000000E+00
(PID.TID 0000.0001) %MON AngleSN_min                  =   0.0000000000000E+00
(PID.TID 0000.0001) %MON AngleSN_mean                 =   0.0000000000000E+00
(PID.TID 0000.0001) %MON AngleSN_sd                   =   0.0000000000000E+00
(PID.TID 0000.0001)  MDS_READ_FIELD: opening global file: ../input/input/bathyneg.bin
(PID.TID 0000.0001) // =======================================================
(PID.TID 0000.0001) // Field Model R_low (ini_masks_etc)
(PID.TID 0000.0001) // CMIN =         -3.495000000000000E+03
(PID.TID 0000.0001) // CMAX =         -3.495000000000000E+03
(PID.TID 0000.0001) // CINT =          0.000000000000000E+00
(PID.TID 0000.0001) // SYMBOLS (CMIN->CMAX): -abcdefghijklmnopqrstuvwxyz+
(PID.TID 0000.0001) //                  0.0: .
(PID.TID 0000.0001) // RANGE I (Lo:Hi:Step):(    -1:     3:     1)
(PID.TID 0000.0001) // RANGE J (Lo:Hi:Step):(     3:    -1:    -1)
(PID.TID 0000.0001) // RANGE K (Lo:Hi:Step):(   1:   1:   1)
(PID.TID 0000.0001) // =======================================================
(PID.TID 0000.0001) // =======================================================
(PID.TID 0000.0001) // END OF FIELD                                          =
(PID.TID 0000.0001) // =======================================================
(PID.TID 0000.0001) 
(PID.TID 0000.0001) // =======================================================
(PID.TID 0000.0001) // Field Model Ro_surf (ini_masks_etc)
(PID.TID 0000.0001) // CMIN =          1.000000000000000E+32
(PID.TID 0000.0001) // CMAX =         -1.000000000000000E+32
(PID.TID 0000.0001) // CINT =          0.000000000000000E+00
(PID.TID 0000.0001) // SYMBOLS (CMIN->CMAX): -abcdefghijklmnopqrstuvwxyz+
(PID.TID 0000.0001) //                  0.0: .
(PID.TID 0000.0001) // RANGE I (Lo:Hi:Step):(    -1:     3:     1)
(PID.TID 0000.0001) // RANGE J (Lo:Hi:Step):(     3:    -1:    -1)
(PID.TID 0000.0001) // RANGE K (Lo:Hi:Step):(   1:   1:   1)
(PID.TID 0000.0001) // =======================================================
(PID.TID 0000.0001) // =======================================================
(PID.TID 0000.0001) // END OF FIELD                                          =
(PID.TID 0000.0001) // =======================================================
(PID.TID 0000.0001) 
(PID.TID 0000.0001) // =======================================================
(PID.TID 0000.0001) // Field hFacC at iteration          0
(PID.TID 0000.0001) // CMIN =          1.000000000000000E+00
(PID.TID 0000.0001) // CMAX =          1.000000000000000E+00
(PID.TID 0000.0001) // CINT =          0.000000000000000E+00
(PID.TID 0000.0001) // SYMBOLS (CMIN->CMAX): -abcdefghijklmnopqrstuvwxyz+
(PID.TID 0000.0001) //                  0.0: .
(PID.TID 0000.0001) // RANGE I (Lo:Hi:Step):(    -1:     3:     1)
(PID.TID 0000.0001) // RANGE J (Lo:Hi:Step):(     3:    -1:    -1)
(PID.TID 0000.0001) // RANGE K (Lo:Hi:Step):(   1:   1:   1)
(PID.TID 0000.0001) // =======================================================
(PID.TID 0000.0001) // =======================================================
(PID.TID 0000.0001) // END OF FIELD                                          =
(PID.TID 0000.0001) // =======================================================
(PID.TID 0000.0001) 
(PID.TID 0000.0001) // =======================================================
(PID.TID 0000.0001) // Field hFacW at iteration          0
(PID.TID 0000.0001) // CMIN =          1.000000000000000E+00
(PID.TID 0000.0001) // CMAX =          1.000000000000000E+00
(PID.TID 0000.0001) // CINT =          0.000000000000000E+00
(PID.TID 0000.0001) // SYMBOLS (CMIN->CMAX): -abcdefghijklmnopqrstuvwxyz+
(PID.TID 0000.0001) //                  0.0: .
(PID.TID 0000.0001) // RANGE I (Lo:Hi:Step):(    -1:     3:     1)
(PID.TID 0000.0001) // RANGE J (Lo:Hi:Step):(     3:    -1:    -1)
(PID.TID 0000.0001) // RANGE K (Lo:Hi:Step):(   1:   1:   1)
(PID.TID 0000.0001) // =======================================================
(PID.TID 0000.0001) // =======================================================
(PID.TID 0000.0001) // END OF FIELD                                          =
(PID.TID 0000.0001) // =======================================================
(PID.TID 0000.0001) 
(PID.TID 0000.0001) // =======================================================
(PID.TID 0000.0001) // Field hFacS at iteration          0
(PID.TID 0000.0001) // CMIN =          1.000000000000000E+00
(PID.TID 0000.0001) // CMAX =          1.000000000000000E+00
(PID.TID 0000.0001) // CINT =          0.000000000000000E+00
(PID.TID 0000.0001) // SYMBOLS (CMIN->CMAX): -abcdefghijklmnopqrstuvwxyz+
(PID.TID 0000.0001) //                  0.0: .
(PID.TID 0000.0001) // RANGE I (Lo:Hi:Step):(    -1:     3:     1)
(PID.TID 0000.0001) // RANGE J (Lo:Hi:Step):(     3:    -1:    -1)
(PID.TID 0000.0001) // RANGE K (Lo:Hi:Step):(   1:   1:   1)
(PID.TID 0000.0001) // =======================================================
(PID.TID 0000.0001) // =======================================================
(PID.TID 0000.0001) // END OF FIELD                                          =
(PID.TID 0000.0001) // =======================================================
(PID.TID 0000.0001) 
(PID.TID 0000.0001) 
(PID.TID 0000.0001) // =======================================================
(PID.TID 0000.0001) // Calendar configuration >>> START <<<
(PID.TID 0000.0001) // =======================================================
(PID.TID 0000.0001) 
(PID.TID 0000.0001) modelstart = /* Start time of the model integration [s] */
(PID.TID 0000.0001)                 0.000000000000000E+00
(PID.TID 0000.0001)     ;
(PID.TID 0000.0001) modelend  = /* End time of the model integration [s] */
(PID.TID 0000.0001)                 1.440000000000000E+04
(PID.TID 0000.0001)     ;
(PID.TID 0000.0001) modelStep = /* Time interval for a model forward step [s] */
(PID.TID 0000.0001)                 3.600000000000000E+03
(PID.TID 0000.0001)     ;
(PID.TID 0000.0001) usingGregorianCalendar= /* Calendar Type: Gregorian Calendar */
(PID.TID 0000.0001)                   F
(PID.TID 0000.0001)     ;
(PID.TID 0000.0001) usingJulianCalendar = /* Calendar Type: Julian Calendar */
(PID.TID 0000.0001)                   F
(PID.TID 0000.0001)     ;
(PID.TID 0000.0001) usingNoLeapYearCal  = /* Calendar Type: without Leap Year */
(PID.TID 0000.0001)                   F
(PID.TID 0000.0001)     ;
(PID.TID 0000.0001) usingModelCalendar  = /* Calendar Type: Model Calendar */
(PID.TID 0000.0001)                   T
(PID.TID 0000.0001)     ;
(PID.TID 0000.0001) modelStartDate YYYYMMDD = /* Model start date YYYY-MM-DD */
(PID.TID 0000.0001)                19920101
(PID.TID 0000.0001)     ;
(PID.TID 0000.0001)   modelStartDate HHMMSS = /* Model start date HH-MM-SS  */
(PID.TID 0000.0001)                       0
(PID.TID 0000.0001)     ;
(PID.TID 0000.0001) modelEndDate   YYYYMMDD = /* Model end date YYYY-MM-DD */
(PID.TID 0000.0001)                19920101
(PID.TID 0000.0001)     ;
(PID.TID 0000.0001)   modelEndDate   HHMMSS = /* Model end date HH-MM-SS  */
(PID.TID 0000.0001)                   40000
(PID.TID 0000.0001)     ;
(PID.TID 0000.0001) intyears = /* Number of calendar years affected by the integration */
(PID.TID 0000.0001)                       1
(PID.TID 0000.0001)     ;
(PID.TID 0000.0001) intmonths= /* Number of calendar months affected by the integration */
(PID.TID 0000.0001)                       1
(PID.TID 0000.0001)     ;
(PID.TID 0000.0001) intdays = /* Number of calendar days affected by the integration */
(PID.TID 0000.0001)                       1
(PID.TID 0000.0001)     ;
(PID.TID 0000.0001) modelIter0 = /* Base timestep number  */
(PID.TID 0000.0001)                       0
(PID.TID 0000.0001)     ;
(PID.TID 0000.0001) modelIterEnd = /* Final timestep number  */
(PID.TID 0000.0001)                       4
(PID.TID 0000.0001)     ;
(PID.TID 0000.0001) modelIntSteps= /* Number of model timesteps  */
(PID.TID 0000.0001)                       4
(PID.TID 0000.0001)     ;
(PID.TID 0000.0001) 
(PID.TID 0000.0001) // =======================================================
(PID.TID 0000.0001) // Calendar configuration  >>> END <<<
(PID.TID 0000.0001) // =======================================================
(PID.TID 0000.0001) 
(PID.TID 0000.0001) GAD_INIT_FIXED: GAD_OlMinSize=  2  0  1
(PID.TID 0000.0001) 
(PID.TID 0000.0001) // ===================================
(PID.TID 0000.0001) // GAD parameters :
(PID.TID 0000.0001) // ===================================
(PID.TID 0000.0001) tempAdvScheme =   /* Temp. Horiz.Advection scheme selector */
(PID.TID 0000.0001)                       3
(PID.TID 0000.0001)     ;
(PID.TID 0000.0001) tempVertAdvScheme =   /* Temp. Vert. Advection scheme selector */
(PID.TID 0000.0001)                       3
(PID.TID 0000.0001)     ;
(PID.TID 0000.0001) tempMultiDimAdvec =   /* use Muti-Dim Advec method for Temp */
(PID.TID 0000.0001)                   F
(PID.TID 0000.0001)     ;
(PID.TID 0000.0001) tempSOM_Advection = /* use 2nd Order Moment Advection for Temp */
(PID.TID 0000.0001)                   F
(PID.TID 0000.0001)     ;
(PID.TID 0000.0001) AdamsBashforthGt = /* apply Adams-Bashforth extrapolation on Gt */
(PID.TID 0000.0001)                   T
(PID.TID 0000.0001)     ;
(PID.TID 0000.0001) AdamsBashforth_T = /* apply Adams-Bashforth extrapolation on Temp */
(PID.TID 0000.0001)                   F
(PID.TID 0000.0001)     ;
(PID.TID 0000.0001) saltAdvScheme =   /* Salt. Horiz.advection scheme selector */
(PID.TID 0000.0001)                       3
(PID.TID 0000.0001)     ;
(PID.TID 0000.0001) saltVertAdvScheme =   /* Salt. Vert. Advection scheme selector */
(PID.TID 0000.0001)                       3
(PID.TID 0000.0001)     ;
(PID.TID 0000.0001) saltMultiDimAdvec =   /* use Muti-Dim Advec method for Salt */
(PID.TID 0000.0001)                   F
(PID.TID 0000.0001)     ;
(PID.TID 0000.0001) saltSOM_Advection = /* use 2nd Order Moment Advection for Salt */
(PID.TID 0000.0001)                   F
(PID.TID 0000.0001)     ;
(PID.TID 0000.0001) AdamsBashforthGs = /* apply Adams-Bashforth extrapolation on Gs */
(PID.TID 0000.0001)                   F
(PID.TID 0000.0001)     ;
(PID.TID 0000.0001) AdamsBashforth_S = /* apply Adams-Bashforth extrapolation on Salt */
(PID.TID 0000.0001)                   F
(PID.TID 0000.0001)     ;
(PID.TID 0000.0001) // ===================================
(PID.TID 0000.0001) 
(PID.TID 0000.0001) // =======================================================
(PID.TID 0000.0001) // External forcing (EXF) configuration >>> START <<<
(PID.TID 0000.0001) // =======================================================
(PID.TID 0000.0001) 
(PID.TID 0000.0001)  EXF general parameters:
(PID.TID 0000.0001) 
(PID.TID 0000.0001) exf_iprec = /* exf file precision */
(PID.TID 0000.0001)                      32
(PID.TID 0000.0001)     ;
(PID.TID 0000.0001) useExfYearlyFields = /* add extension _YEAR to input file names */
(PID.TID 0000.0001)                   T
(PID.TID 0000.0001)     ;
(PID.TID 0000.0001) twoDigitYear = /* use 2-digit year extension */
(PID.TID 0000.0001)                   T
(PID.TID 0000.0001)     ;
(PID.TID 0000.0001) useExfCheckRange = /* check for fields range */
(PID.TID 0000.0001)                   F
(PID.TID 0000.0001)     ;
(PID.TID 0000.0001) exf_debugLev = /* select EXF-debug printing level */
(PID.TID 0000.0001)                       2
(PID.TID 0000.0001)     ;
(PID.TID 0000.0001) exf_monFreq  = /* EXF monitor frequency [ s ] */
(PID.TID 0000.0001)                 1.000000000000000E+00
(PID.TID 0000.0001)     ;
(PID.TID 0000.0001) repeatPeriod = /* period for cycling forcing dataset [ s ] */
(PID.TID 0000.0001)                 0.000000000000000E+00
(PID.TID 0000.0001)     ;
(PID.TID 0000.0001) climTempFreeze= /* Minimum climatological temperature [deg.C] */
(PID.TID 0000.0001)                -1.900000000000000E+00
(PID.TID 0000.0001)     ;
(PID.TID 0000.0001) windStressMax = /* Maximum absolute windstress [ Pa ] */
(PID.TID 0000.0001)                 2.000000000000000E+00
(PID.TID 0000.0001)     ;
(PID.TID 0000.0001) stressIsOnCgrid = /* set u,v_stress on Arakawa C-grid */
(PID.TID 0000.0001)                   F
(PID.TID 0000.0001)     ;
(PID.TID 0000.0001) rotateStressOnAgrid = /* rotate u,v_stress on Arakawa A-grid */
(PID.TID 0000.0001)                   F
(PID.TID 0000.0001)     ;
(PID.TID 0000.0001) cen2kel = /* conversion of deg. Centigrade to Kelvin [K] */
(PID.TID 0000.0001)                 2.731500000000000E+02
(PID.TID 0000.0001)     ;
(PID.TID 0000.0001) gravity_mks= /* gravitational acceleration [m/s^2] */
(PID.TID 0000.0001)                 9.810000000000000E+00
(PID.TID 0000.0001)     ;
(PID.TID 0000.0001) atmrho =  /* mean atmospheric density [kg/m^3] */
(PID.TID 0000.0001)                 1.200000000000000E+00
(PID.TID 0000.0001)     ;
(PID.TID 0000.0001) atmcp =  /* mean atmospheric specific heat [J/kg/K] */
(PID.TID 0000.0001)                 1.005000000000000E+03
(PID.TID 0000.0001)     ;
(PID.TID 0000.0001) flamb =  /* latent heat of evaporation [J/kg] */
(PID.TID 0000.0001)                 2.500000000000000E+06
(PID.TID 0000.0001)     ;
(PID.TID 0000.0001) flami =  /* latent heat of pure-ice melting [J/kg] */
(PID.TID 0000.0001)                 3.340000000000000E+05
(PID.TID 0000.0001)     ;
(PID.TID 0000.0001) cvapor_fac = /* const. for Saturation calculation [?] */
(PID.TID 0000.0001)                 6.403800000000000E+05
(PID.TID 0000.0001)     ;
(PID.TID 0000.0001) cvapor_exp = /* const. for Saturation calculation [?] */
(PID.TID 0000.0001)                 5.107400000000000E+03
(PID.TID 0000.0001)     ;
(PID.TID 0000.0001) cvapor_fac_ice= /* const. for Saturation calculation [?] */
(PID.TID 0000.0001)                 1.163780000000000E+07
(PID.TID 0000.0001)     ;
(PID.TID 0000.0001) cvapor_exp_ice= /* const. for Saturation calculation [?] */
(PID.TID 0000.0001)                 5.897800000000000E+03
(PID.TID 0000.0001)     ;
(PID.TID 0000.0001) humid_fac = /* humidity coef. in virtual temp. [(kg/kg)^-1] */
(PID.TID 0000.0001)                 6.060000000000000E-01
(PID.TID 0000.0001)     ;
(PID.TID 0000.0001) gamma_blk = /* adiabatic lapse rate [?] */
(PID.TID 0000.0001)                 1.000000000000000E-02
(PID.TID 0000.0001)     ;
(PID.TID 0000.0001) saltsat = /* reduction of Qsat over salty water [-] */
(PID.TID 0000.0001)                 9.800000000000000E-01
(PID.TID 0000.0001)     ;
(PID.TID 0000.0001) noNegativeEvap = /* prevent negative Evaporation */
(PID.TID 0000.0001)                   F
(PID.TID 0000.0001)     ;
(PID.TID 0000.0001) sstExtrapol = /* extrapolation coeff from lev. 1 & 2 to surf [-] */
(PID.TID 0000.0001)                 0.000000000000000E+00
(PID.TID 0000.0001)     ;
(PID.TID 0000.0001) cDrag_1 = /* coef used in drag calculation [?] */
(PID.TID 0000.0001)                 2.700000000000000E-03
(PID.TID 0000.0001)     ;
(PID.TID 0000.0001) cDrag_2 = /* coef used in drag calculation [?] */
(PID.TID 0000.0001)                 1.420000000000000E-04
(PID.TID 0000.0001)     ;
(PID.TID 0000.0001) cDrag_3 = /* coef used in drag calculation [?] */
(PID.TID 0000.0001)                 7.640000000000000E-05
(PID.TID 0000.0001)     ;
(PID.TID 0000.0001) cStanton_1 = /* coef used in Stanton number calculation [?] */
(PID.TID 0000.0001)                 3.270000000000000E-02
(PID.TID 0000.0001)     ;
(PID.TID 0000.0001) cStanton_2 = /* coef used in Stanton number calculation [?] */
(PID.TID 0000.0001)                 1.800000000000000E-02
(PID.TID 0000.0001)     ;
(PID.TID 0000.0001) cDalton = /* coef used in Dalton number calculation [?] */
(PID.TID 0000.0001)                 3.460000000000000E-02
(PID.TID 0000.0001)     ;
(PID.TID 0000.0001) exf_scal_BulkCdn= /* Drag coefficient scaling factor [-] */
(PID.TID 0000.0001)                 1.000000000000000E+00
(PID.TID 0000.0001)     ;
(PID.TID 0000.0001) zolmin = /* minimum stability parameter [?] */
(PID.TID 0000.0001)                -1.000000000000000E+02
(PID.TID 0000.0001)     ;
(PID.TID 0000.0001) psim_fac = /* coef used in turbulent fluxes calculation [-] */
(PID.TID 0000.0001)                 5.000000000000000E+00
(PID.TID 0000.0001)     ;
(PID.TID 0000.0001) zref =  /* reference height [ m ] */
(PID.TID 0000.0001)                 1.000000000000000E+01
(PID.TID 0000.0001)     ;
(PID.TID 0000.0001) hu =  /* height of mean wind [ m ] */
(PID.TID 0000.0001)                 1.000000000000000E+01
(PID.TID 0000.0001)     ;
(PID.TID 0000.0001) ht =  /* height of mean temperature [ m ] */
(PID.TID 0000.0001)                 2.000000000000000E+00
(PID.TID 0000.0001)     ;
(PID.TID 0000.0001) hq =  /* height of mean spec.humidity [ m ] */
(PID.TID 0000.0001)                 2.000000000000000E+00
(PID.TID 0000.0001)     ;
(PID.TID 0000.0001) uMin = /* minimum wind speed [m/s] */
(PID.TID 0000.0001)                 5.000000000000000E-01
(PID.TID 0000.0001)     ;
(PID.TID 0000.0001) useStabilityFct_overIce= /* transfert Coeffs over sea-ice depend on stability */
(PID.TID 0000.0001)                   F
(PID.TID 0000.0001)     ;
(PID.TID 0000.0001) exf_iceCd = /* drag coefficient over sea-ice (fixed) [-] */
(PID.TID 0000.0001)                 1.630000000000000E-03
(PID.TID 0000.0001)     ;
(PID.TID 0000.0001) exf_iceCe = /* transfert coeff. over sea-ice, for Evap (fixed) [-] */
(PID.TID 0000.0001)                 1.630000000000000E-03
(PID.TID 0000.0001)     ;
(PID.TID 0000.0001) exf_iceCh = /* transfert coeff. over sea-ice, Sens.Heat.(fixed)[-] */
(PID.TID 0000.0001)                 1.630000000000000E-03
(PID.TID 0000.0001)     ;
(PID.TID 0000.0001) exf_albedo =  /* Sea-water albedo [-] */
(PID.TID 0000.0001)                 1.500000000000000E-01
(PID.TID 0000.0001)     ;
(PID.TID 0000.0001) useExfZenAlbedo = /* Sea-water albedo varies with zenith angle */
(PID.TID 0000.0001)                   F
(PID.TID 0000.0001)     ;
(PID.TID 0000.0001) select_ZenAlbedo = /* Sea-water albedo computation method */
(PID.TID 0000.0001)                       0
(PID.TID 0000.0001)     ;
(PID.TID 0000.0001) useExfZenIncoming = /* compute incoming solar radiation */
(PID.TID 0000.0001)                   F
(PID.TID 0000.0001)     ;
(PID.TID 0000.0001) ocean_emissivity = /* longwave ocean-surface emissivity [-] */
(PID.TID 0000.0001)                 9.700176366843034E-01
(PID.TID 0000.0001)     ;
(PID.TID 0000.0001) ice_emissivity = /* longwave seaice emissivity [-] */
(PID.TID 0000.0001)                 9.500000000000000E-01
(PID.TID 0000.0001)     ;
(PID.TID 0000.0001) snow_emissivity = /* longwave snow  emissivity [-] */
(PID.TID 0000.0001)                 9.500000000000000E-01
(PID.TID 0000.0001)     ;
(PID.TID 0000.0001) 
(PID.TID 0000.0001)  EXF main CPP flags:
(PID.TID 0000.0001) 
(PID.TID 0000.0001) // USE_EXF_INTERPOLATION:          NOT defined
(PID.TID 0000.0001) // ALLOW_ATM_TEMP:                     defined
(PID.TID 0000.0001) // ALLOW_ATM_WIND (useAtmWind):        defined
(PID.TID 0000.0001) // ALLOW_DOWNWARD_RADIATION:           defined
(PID.TID 0000.0001) // ALLOW_BULKFORMULAE:                 defined
(PID.TID 0000.0001) // ALLOW_READ_TURBFLUXES:          NOT defined
(PID.TID 0000.0001) // EXF_READ_EVAP:                  NOT defined
(PID.TID 0000.0001) // ALLOW_RUNOFF:                       defined
(PID.TID 0000.0001) // ALLOW_RUNOFTEMP:                NOT defined
(PID.TID 0000.0001) // ALLOW_SALTFLX:                  NOT defined
(PID.TID 0000.0001) 
(PID.TID 0000.0001) // =======================================================
(PID.TID 0000.0001) // External forcing (EXF) climatology configuration :
(PID.TID 0000.0001) // =======================================================
(PID.TID 0000.0001) 
(PID.TID 0000.0001) // ALLOW_CLIMSST_RELAXATION:       NOT defined
(PID.TID 0000.0001) 
(PID.TID 0000.0001) // ALLOW_CLIMSSS_RELAXATION:       NOT defined
(PID.TID 0000.0001) 
(PID.TID 0000.0001) // =======================================================
(PID.TID 0000.0001) // External forcing (EXF) configuration  >>> END <<<
(PID.TID 0000.0001) // =======================================================
(PID.TID 0000.0001) 
(PID.TID 0000.0001) GUD_RANDOM_INIT: port_rand            11231   0.4077530000000000
 nsource           1           3
 nsource           2           3
 nsource           3           3
 nsource           4           2
 nsource           5           1
 nsource           6           0
 nsource           7           0
 nsource           8           3
 nsource           9           3
(PID.TID 0000.0001)  GUD_INIT_FIXED: opening data.traits
(PID.TID 0000.0001)  OPEN_COPY_DATA_FILE: opening file data.traits
(PID.TID 0000.0001) // =======================================================
(PID.TID 0000.0001) // Removing comments from "data.traits"
(PID.TID 0000.0001) // =======================================================
(PID.TID 0000.0001)    1  &GUD_TRAITS
(PID.TID 0000.0001)    2  tempMort(10)= 0,
(PID.TID 0000.0001)    3  tempMort(11)= 0,
(PID.TID 0000.0001)    4  tempMort2(10)= 0,
(PID.TID 0000.0001)    5  tempMort2(11)= 0,
(PID.TID 0000.0001)    6  ksatPO4(9)= 0.02916666666666666666666666,  ! 0.035/1.2
(PID.TID 0000.0001)    7  ksatNO3(9)= 0.4666666666666666666666666,
(PID.TID 0000.0001)    8  ksatNO2(9)= 0.4666666666666666666666666,
(PID.TID 0000.0001)    9  ksatNH4(9)= 0.2333333333333333333333333,
(PID.TID 0000.0001)   10  ksatFeT(9)= 0.02916666666666666666666666E-3,
(PID.TID 0000.0001)   11  /
(PID.TID 0000.0001) // =======================================================
(PID.TID 0000.0001) // Parameter file "data.traits"
(PID.TID 0000.0001) // =======================================================
(PID.TID 0000.0001) > &GUD_TRAITS
(PID.TID 0000.0001) > tempMort(10)= 0,
(PID.TID 0000.0001) > tempMort(11)= 0,
(PID.TID 0000.0001) > tempMort2(10)= 0,
(PID.TID 0000.0001) > tempMort2(11)= 0,
(PID.TID 0000.0001) > ksatPO4(9)= 0.02916666666666666666666666,  ! 0.035/1.2
(PID.TID 0000.0001) > ksatNO3(9)= 0.4666666666666666666666666,
(PID.TID 0000.0001) > ksatNO2(9)= 0.4666666666666666666666666,
(PID.TID 0000.0001) > ksatNH4(9)= 0.2333333333333333333333333,
(PID.TID 0000.0001) > ksatFeT(9)= 0.02916666666666666666666666E-3,
(PID.TID 0000.0001) > /
(PID.TID 0000.0001) 
(PID.TID 0000.0001)  ===================================
(PID.TID 0000.0001) ------------------------------------------------------------
(PID.TID 0000.0001) DIAGNOSTICS_SET_LEVELS: done
(PID.TID 0000.0001)  Total Nb of available Diagnostics: ndiagt=   686
(PID.TID 0000.0001)  write list of available Diagnostics to file: available_diagnostics.log
(PID.TID 0000.0001) SETDIAG: Allocate 35 x  1 Levels for Diagnostic #   162 TRAC01
(PID.TID 0000.0001) SETDIAG: Allocate 35 x  1 Levels for Diagnostic #   177 TRAC02
(PID.TID 0000.0001) SETDIAG: Allocate 35 x  1 Levels for Diagnostic #   192 TRAC03
(PID.TID 0000.0001) SETDIAG: Allocate 35 x  1 Levels for Diagnostic #   207 TRAC04
(PID.TID 0000.0001) SETDIAG: Allocate 35 x  1 Levels for Diagnostic #   222 TRAC05
(PID.TID 0000.0001) SETDIAG: Allocate 35 x  1 Levels for Diagnostic #   237 TRAC06
(PID.TID 0000.0001) SETDIAG: Allocate 35 x  1 Levels for Diagnostic #   252 TRAC07
(PID.TID 0000.0001) SETDIAG: Allocate 35 x  1 Levels for Diagnostic #   267 TRAC08
(PID.TID 0000.0001) SETDIAG: Allocate 35 x  1 Levels for Diagnostic #   282 TRAC09
(PID.TID 0000.0001) SETDIAG: Allocate 35 x  1 Levels for Diagnostic #   297 TRAC10
(PID.TID 0000.0001) SETDIAG: Allocate 35 x  1 Levels for Diagnostic #   312 TRAC11
(PID.TID 0000.0001) SETDIAG: Allocate 35 x  1 Levels for Diagnostic #   327 TRAC12
(PID.TID 0000.0001) SETDIAG: Allocate 35 x  1 Levels for Diagnostic #   342 TRAC13
(PID.TID 0000.0001) SETDIAG: Allocate 35 x  1 Levels for Diagnostic #   357 TRAC14
(PID.TID 0000.0001) SETDIAG: Allocate 35 x  1 Levels for Diagnostic #   372 TRAC15
(PID.TID 0000.0001) SETDIAG: Allocate 35 x  1 Levels for Diagnostic #   387 TRAC16
(PID.TID 0000.0001) SETDIAG: Allocate 35 x  1 Levels for Diagnostic #   402 TRAC17
(PID.TID 0000.0001) SETDIAG: Allocate 35 x  1 Levels for Diagnostic #   417 TRAC18
(PID.TID 0000.0001) SETDIAG: Allocate 35 x  1 Levels for Diagnostic #   432 TRAC19
[...]
(PID.TID 0000.0001) %MON trcstat_ptracer29_sd         =   4.2348233577250E-01
(PID.TID 0000.0001) %MON trcstat_ptracer29_del2       =   0.0000000000000E+00
(PID.TID 0000.0001) %MON trcstat_ptracer30_max        =   2.8326331770472E+00
(PID.TID 0000.0001) %MON trcstat_ptracer30_min        =   4.9976876217915E-68
(PID.TID 0000.0001) %MON trcstat_ptracer30_mean       =   8.2231047807042E-02
(PID.TID 0000.0001) %MON trcstat_ptracer30_sd         =   4.2348178304572E-01
(PID.TID 0000.0001) %MON trcstat_ptracer30_del2       =   0.0000000000000E+00
(PID.TID 0000.0001) // =======================================================
(PID.TID 0000.0001) // End MONITOR ptracers field statistics
(PID.TID 0000.0001) // =======================================================
 Computing Diagnostic #    162  TRAC01       Counter:       1   Parms: SMR     MR      
 Computing Diagnostic #    177  TRAC02       Counter:       1   Parms: SMR     MR      
 Computing Diagnostic #    192  TRAC03       Counter:       1   Parms: SMR     MR      
 Computing Diagnostic #    207  TRAC04       Counter:       1   Parms: SMR     MR      
 Computing Diagnostic #    222  TRAC05       Counter:       1   Parms: SMR     MR      
 Computing Diagnostic #    237  TRAC06       Counter:       1   Parms: SMR     MR      
 Computing Diagnostic #    252  TRAC07       Counter:       1   Parms: SMR     MR      
 Computing Diagnostic #    267  TRAC08       Counter:       1   Parms: SMR     MR      
 Computing Diagnostic #    282  TRAC09       Counter:       1   Parms: SMR     MR      
 Computing Diagnostic #    297  TRAC10       Counter:       1   Parms: SMR     MR      
 Computing Diagnostic #    312  TRAC11       Counter:       1   Parms: SMR     MR      
 Computing Diagnostic #    327  TRAC12       Counter:       1   Parms: SMR     MR      
 Computing Diagnostic #    342  TRAC13       Counter:       1   Parms: SMR     MR      
 Computing Diagnostic #    357  TRAC14       Counter:       1   Parms: SMR     MR      
 Computing Diagnostic #    372  TRAC15       Counter:       1   Parms: SMR     MR      
 Computing Diagnostic #    387  TRAC16       Counter:       1   Parms: SMR     MR      
 Computing Diagnostic #    402  TRAC17       Counter:       1   Parms: SMR     MR      
 Computing Diagnostic #    417  TRAC18       Counter:       1   Parms: SMR     MR      
 Computing Diagnostic #    432  TRAC19       Counter:       1   Parms: SMR     MR      
 Computing Diagnostic #    447  TRAC20       Counter:       1   Parms: SMR     MR      
 Computing Diagnostic #    462  TRAC21       Counter:       1   Parms: SMR     MR      
 Computing Diagnostic #    477  TRAC22       Counter:       1   Parms: SMR     MR      
 Computing Diagnostic #    492  TRAC23       Counter:       1   Parms: SMR     MR      
 Computing Diagnostic #    507  TRAC24       Counter:       1   Parms: SMR     MR      
 Computing Diagnostic #    522  TRAC25       Counter:       1   Parms: SMR     MR      
 Computing Diagnostic #    537  TRAC26       Counter:       1   Parms: SMR     MR      
 Computing Diagnostic #    552  TRAC27       Counter:       1   Parms: SMR     MR      
 Computing Diagnostic #    567  TRAC28       Counter:       1   Parms: SMR     MR      
 Computing Diagnostic #    582  TRAC29       Counter:       1   Parms: SMR     MR      
 Computing Diagnostic #    597  TRAC30       Counter:       1   Parms: SMR     MR      
 Computing Diagnostic #    619  PARF         Counter:       1   Parms: SM P    MR      
 Computing Diagnostic #    616  atten        Counter:       1   Parms: SM P    MR      
 Computing Diagnostic #    618  surfPAR      Counter:       1   Parms: SM P    L1      
 Computing Diagnostic #    617  exfPAR       Counter:       1   Parms: SM P    L1      
 Computing Diagnostic #    651  pH           Counter:       1   Parms: SM      MR      
 Computing Diagnostic #    652  pCO2         Counter:       1   Parms: SM P    MR      
 Computing Diagnostic #    653  fluxCO2      Counter:       1   Parms: SM      L1      
 Computing Diagnostic #    654  gDICsurf     Counter:       1   Parms: SM      L1      
 Computing Diagnostic #    655  gALKsurf     Counter:       1   Parms: SM      L1      
 Computing Diagnostic #    656  gO2surf      Counter:       1   Parms: SM      L1      
(PID.TID 0000.0001) %CHECKPOINT         4 ckptA
(PID.TID 0000.0001)   Seconds in section "ALL                    [THE_MODEL_MAIN]":
(PID.TID 0000.0001)           User time:  0.50792298885062337
(PID.TID 0000.0001)         System time:   1.6998000326566398E-002
(PID.TID 0000.0001)     Wall clock time:  0.58342504501342773
(PID.TID 0000.0001)          No. starts:           1
(PID.TID 0000.0001)           No. stops:           1
(PID.TID 0000.0001)   Seconds in section "INITIALISE_FIXED       [THE_MODEL_MAIN]":
(PID.TID 0000.0001)           User time:  0.23596399696543813
(PID.TID 0000.0001)         System time:   9.9990003509446979E-003
(PID.TID 0000.0001)     Wall clock time:  0.28077816963195801
(PID.TID 0000.0001)          No. starts:           1
(PID.TID 0000.0001)           No. stops:           1
(PID.TID 0000.0001)   Seconds in section "THE_MAIN_LOOP          [THE_MODEL_MAIN]":
(PID.TID 0000.0001)           User time:  0.27195899188518524
(PID.TID 0000.0001)         System time:   6.9989999756217003E-003
(PID.TID 0000.0001)     Wall clock time:  0.30090188980102539
(PID.TID 0000.0001)          No. starts:           1
(PID.TID 0000.0001)           No. stops:           1
(PID.TID 0000.0001)   Seconds in section "INITIALISE_VARIA    [THE_MAIN_LOOP]":
(PID.TID 0000.0001)           User time:   1.2997999787330627E-002
(PID.TID 0000.0001)         System time:   3.9989994838833809E-003
(PID.TID 0000.0001)     Wall clock time:   2.3828029632568359E-002
(PID.TID 0000.0001)          No. starts:           1
(PID.TID 0000.0001)           No. stops:           1
(PID.TID 0000.0001)   Seconds in section "MAIN LOOP           [THE_MAIN_LOOP]":
(PID.TID 0000.0001)           User time:  0.25896099209785461
(PID.TID 0000.0001)         System time:   3.0000004917383194E-003
(PID.TID 0000.0001)     Wall clock time:  0.27705693244934082
(PID.TID 0000.0001)          No. starts:           1
(PID.TID 0000.0001)           No. stops:           1
(PID.TID 0000.0001)   Seconds in section "MAIN_DO_LOOP        [THE_MAIN_LOOP]":
(PID.TID 0000.0001)           User time:  0.25896099209785461
(PID.TID 0000.0001)         System time:   3.0000004917383194E-003
(PID.TID 0000.0001)     Wall clock time:  0.27703285217285156
(PID.TID 0000.0001)          No. starts:           4
(PID.TID 0000.0001)           No. stops:           4
(PID.TID 0000.0001)   Seconds in section "FORWARD_STEP        [MAIN_DO_LOOP]":
(PID.TID 0000.0001)           User time:  0.25896099209785461
(PID.TID 0000.0001)         System time:   3.0000004917383194E-003
(PID.TID 0000.0001)     Wall clock time:  0.27699422836303711
(PID.TID 0000.0001)          No. starts:           4
(PID.TID 0000.0001)           No. stops:           4
(PID.TID 0000.0001)   Seconds in section "DO_STATEVARS_DIAGS  [FORWARD_STEP]":
(PID.TID 0000.0001)           User time:   1.0000169277191162E-003
(PID.TID 0000.0001)         System time:   0.0000000000000000
(PID.TID 0000.0001)     Wall clock time:   8.2111358642578125E-004
(PID.TID 0000.0001)          No. starts:           8
(PID.TID 0000.0001)           No. stops:           8
(PID.TID 0000.0001)   Seconds in section "LOAD_FIELDS_DRIVER  [FORWARD_STEP]":
(PID.TID 0000.0001)           User time:   2.9990077018737793E-003
(PID.TID 0000.0001)         System time:   0.0000000000000000
(PID.TID 0000.0001)     Wall clock time:   3.0481815338134766E-003
(PID.TID 0000.0001)          No. starts:           4
(PID.TID 0000.0001)           No. stops:           4
(PID.TID 0000.0001)   Seconds in section "EXF_GETFORCING     [LOAD_FLDS_DRIVER]":
(PID.TID 0000.0001)           User time:   9.9900364875793457E-004
(PID.TID 0000.0001)         System time:   0.0000000000000000
(PID.TID 0000.0001)     Wall clock time:   9.4413757324218750E-004
(PID.TID 0000.0001)          No. starts:           4
(PID.TID 0000.0001)           No. stops:           4
(PID.TID 0000.0001)   Seconds in section "EXTERNAL_FLDS_LOAD [LOAD_FLDS_DRIVER]":
(PID.TID 0000.0001)           User time:   1.0000169277191162E-003
(PID.TID 0000.0001)         System time:   0.0000000000000000
(PID.TID 0000.0001)     Wall clock time:   7.3695182800292969E-004
(PID.TID 0000.0001)          No. starts:           4
(PID.TID 0000.0001)           No. stops:           4
(PID.TID 0000.0001)   Seconds in section "DO_ATMOSPHERIC_PHYS [FORWARD_STEP]":
(PID.TID 0000.0001)           User time:   0.0000000000000000
(PID.TID 0000.0001)         System time:   0.0000000000000000
(PID.TID 0000.0001)     Wall clock time:   2.0980834960937500E-005
(PID.TID 0000.0001)          No. starts:           4
(PID.TID 0000.0001)           No. stops:           4
(PID.TID 0000.0001)   Seconds in section "DO_OCEANIC_PHYS     [FORWARD_STEP]":
(PID.TID 0000.0001)           User time:   2.0000040531158447E-003
(PID.TID 0000.0001)         System time:   1.0000001639127731E-003
(PID.TID 0000.0001)     Wall clock time:   2.9621124267578125E-003
(PID.TID 0000.0001)          No. starts:           4
(PID.TID 0000.0001)           No. stops:           4
(PID.TID 0000.0001)   Seconds in section "KPP_CALC [DO_OCEANIC_PHYS]":
(PID.TID 0000.0001)           User time:   2.0000040531158447E-003
(PID.TID 0000.0001)         System time:   1.0000001639127731E-003
(PID.TID 0000.0001)     Wall clock time:   2.5806427001953125E-003
(PID.TID 0000.0001)          No. starts:           4
(PID.TID 0000.0001)           No. stops:           4
(PID.TID 0000.0001)   Seconds in section "GCHEM_CALC_TENDENCY [FORWARD_STEP]":
(PID.TID 0000.0001)           User time:   0.0000000000000000
(PID.TID 0000.0001)         System time:   0.0000000000000000
(PID.TID 0000.0001)     Wall clock time:   1.9073486328125000E-005
(PID.TID 0000.0001)          No. starts:           4
(PID.TID 0000.0001)           No. stops:           4
(PID.TID 0000.0001)   Seconds in section "THERMODYNAMICS      [FORWARD_STEP]":
(PID.TID 0000.0001)           User time:   4.7991991043090820E-002
(PID.TID 0000.0001)         System time:   0.0000000000000000
(PID.TID 0000.0001)     Wall clock time:   4.7558784484863281E-002
(PID.TID 0000.0001)          No. starts:           4
(PID.TID 0000.0001)           No. stops:           4
(PID.TID 0000.0001)   Seconds in section "TRC_CORRECTION_STEP [FORWARD_STEP]":
(PID.TID 0000.0001)           User time:   0.0000000000000000
(PID.TID 0000.0001)         System time:   0.0000000000000000
(PID.TID 0000.0001)     Wall clock time:   2.0980834960937500E-005
(PID.TID 0000.0001)          No. starts:           4
(PID.TID 0000.0001)           No. stops:           4
(PID.TID 0000.0001)   Seconds in section "GCHEM_FORCING_SEP  [FORWARD_STEP]":
(PID.TID 0000.0001)           User time:   2.9999911785125732E-003
(PID.TID 0000.0001)         System time:   0.0000000000000000
(PID.TID 0000.0001)     Wall clock time:   3.5781860351562500E-003
(PID.TID 0000.0001)          No. starts:           4
(PID.TID 0000.0001)           No. stops:           4
(PID.TID 0000.0001)   Seconds in section "GCHEM_DIAGNOSTICS [GCHEM_FORCING_SEP]":
(PID.TID 0000.0001)           User time:   0.0000000000000000
(PID.TID 0000.0001)         System time:   0.0000000000000000
(PID.TID 0000.0001)     Wall clock time:   1.3613700866699219E-004
(PID.TID 0000.0001)          No. starts:           4
(PID.TID 0000.0001)           No. stops:           4
(PID.TID 0000.0001)   Seconds in section "GUD_CONS [GCHEM_FORCING_SEP]":
(PID.TID 0000.0001)           User time:   0.0000000000000000
(PID.TID 0000.0001)         System time:   0.0000000000000000
(PID.TID 0000.0001)     Wall clock time:   3.3879280090332031E-004
(PID.TID 0000.0001)          No. starts:           8
(PID.TID 0000.0001)           No. stops:           8
(PID.TID 0000.0001)   Seconds in section "GCHEM_SURFMEAN [GCHEM_FORCING_SEP]":
(PID.TID 0000.0001)           User time:   0.0000000000000000
(PID.TID 0000.0001)         System time:   0.0000000000000000
(PID.TID 0000.0001)     Wall clock time:   2.0027160644531250E-005
(PID.TID 0000.0001)          No. starts:           4
(PID.TID 0000.0001)           No. stops:           4
(PID.TID 0000.0001)   Seconds in section "GUD_FORCING [GCHEM_FORCING_SEP]":
(PID.TID 0000.0001)           User time:   2.9999911785125732E-003
(PID.TID 0000.0001)         System time:   0.0000000000000000
(PID.TID 0000.0001)     Wall clock time:   2.9640197753906250E-003
(PID.TID 0000.0001)          No. starts:           4
(PID.TID 0000.0001)           No. stops:           4
(PID.TID 0000.0001)   Seconds in section "GUD_LIGHT [GUD_FORCING]":
(PID.TID 0000.0001)           User time:   0.0000000000000000
(PID.TID 0000.0001)         System time:   0.0000000000000000
(PID.TID 0000.0001)     Wall clock time:   1.7404556274414062E-004
(PID.TID 0000.0001)          No. starts:           4
(PID.TID 0000.0001)           No. stops:           4
(PID.TID 0000.0001)   Seconds in section "GUD_SURFFORCING [GUD_FORCING]":
(PID.TID 0000.0001)           User time:   0.0000000000000000
(PID.TID 0000.0001)         System time:   0.0000000000000000
(PID.TID 0000.0001)     Wall clock time:   2.5486946105957031E-004
(PID.TID 0000.0001)          No. starts:           4
(PID.TID 0000.0001)           No. stops:           4
(PID.TID 0000.0001)   Seconds in section "GUD_FE_CHEM [GUD_FORCING]":
(PID.TID 0000.0001)           User time:   0.0000000000000000
(PID.TID 0000.0001)         System time:   0.0000000000000000
(PID.TID 0000.0001)     Wall clock time:   7.2956085205078125E-005
(PID.TID 0000.0001)          No. starts:           8
(PID.TID 0000.0001)           No. stops:           8
(PID.TID 0000.0001)   Seconds in section "GUD_FE_DUST [GUD_FORCING]":
(PID.TID 0000.0001)           User time:   0.0000000000000000
(PID.TID 0000.0001)         System time:   0.0000000000000000
(PID.TID 0000.0001)     Wall clock time:   2.0027160644531250E-005
(PID.TID 0000.0001)          No. starts:           4
(PID.TID 0000.0001)           No. stops:           4
(PID.TID 0000.0001)   Seconds in section "GUD_FE_SCAV [GUD_FORCING]":
(PID.TID 0000.0001)           User time:   0.0000000000000000
(PID.TID 0000.0001)         System time:   0.0000000000000000
(PID.TID 0000.0001)     Wall clock time:   3.7193298339843750E-005
(PID.TID 0000.0001)          No. starts:           4
(PID.TID 0000.0001)           No. stops:           4
(PID.TID 0000.0001)   Seconds in section "GUD_FE_SED [GUD_FORCING]":
(PID.TID 0000.0001)           User time:   9.9998712539672852E-004
(PID.TID 0000.0001)         System time:   0.0000000000000000
(PID.TID 0000.0001)     Wall clock time:   2.4080276489257812E-005
(PID.TID 0000.0001)          No. starts:           4
(PID.TID 0000.0001)           No. stops:           4
(PID.TID 0000.0001)   Seconds in section "GUD_MODEL [GUD_FORCING]":
(PID.TID 0000.0001)           User time:   0.0000000000000000
(PID.TID 0000.0001)         System time:   0.0000000000000000
(PID.TID 0000.0001)     Wall clock time:   4.5680999755859375E-004
(PID.TID 0000.0001)          No. starts:           4
(PID.TID 0000.0001)           No. stops:           4
(PID.TID 0000.0001)   Seconds in section "GUD_SINKING [GUD_FORCING]":
(PID.TID 0000.0001)           User time:   9.9998712539672852E-004
(PID.TID 0000.0001)         System time:   0.0000000000000000
(PID.TID 0000.0001)     Wall clock time:   1.3105869293212891E-003
(PID.TID 0000.0001)          No. starts:           4
(PID.TID 0000.0001)           No. stops:           4
(PID.TID 0000.0001)   Seconds in section "GUD_STEP [GUD_FORCING]":
(PID.TID 0000.0001)           User time:   0.0000000000000000
(PID.TID 0000.0001)         System time:   0.0000000000000000
(PID.TID 0000.0001)     Wall clock time:   8.1062316894531250E-005
(PID.TID 0000.0001)          No. starts:           4
(PID.TID 0000.0001)           No. stops:           4
(PID.TID 0000.0001)   Seconds in section "DIAGS_FILL [GUD_FORCING]":
(PID.TID 0000.0001)           User time:   1.0000169277191162E-003
(PID.TID 0000.0001)         System time:   0.0000000000000000
(PID.TID 0000.0001)     Wall clock time:   1.1181831359863281E-004
(PID.TID 0000.0001)          No. starts:           4
(PID.TID 0000.0001)           No. stops:           4
(PID.TID 0000.0001)   Seconds in section "BLOCKING_EXCHANGES  [FORWARD_STEP]":
(PID.TID 0000.0001)           User time:   1.9989907741546631E-003
(PID.TID 0000.0001)         System time:   0.0000000000000000
(PID.TID 0000.0001)     Wall clock time:   2.2327899932861328E-003
(PID.TID 0000.0001)          No. starts:           4
(PID.TID 0000.0001)           No. stops:           4
(PID.TID 0000.0001)   Seconds in section "DO_STATEVARS_TAVE   [FORWARD_STEP]":
(PID.TID 0000.0001)           User time:   0.0000000000000000
(PID.TID 0000.0001)         System time:   0.0000000000000000
(PID.TID 0000.0001)     Wall clock time:   1.2993812561035156E-004
(PID.TID 0000.0001)          No. starts:           4
(PID.TID 0000.0001)           No. stops:           4
(PID.TID 0000.0001)   Seconds in section "MONITOR             [FORWARD_STEP]":
(PID.TID 0000.0001)           User time:   1.9999742507934570E-003
(PID.TID 0000.0001)         System time:   0.0000000000000000
(PID.TID 0000.0001)     Wall clock time:   1.6360282897949219E-003
(PID.TID 0000.0001)          No. starts:           4
(PID.TID 0000.0001)           No. stops:           4
(PID.TID 0000.0001)   Seconds in section "DO_THE_MODEL_IO     [FORWARD_STEP]":
(PID.TID 0000.0001)           User time:  0.19597104191780090
(PID.TID 0000.0001)         System time:   1.0000001639127731E-003
(PID.TID 0000.0001)     Wall clock time:  0.20329117774963379
(PID.TID 0000.0001)          No. starts:           4
(PID.TID 0000.0001)           No. stops:           4
(PID.TID 0000.0001)   Seconds in section "PTRACERS_RESET      [FORWARD_STEP]":
(PID.TID 0000.0001)           User time:   0.0000000000000000
(PID.TID 0000.0001)         System time:   0.0000000000000000
(PID.TID 0000.0001)     Wall clock time:   2.0742416381835938E-005
(PID.TID 0000.0001)          No. starts:           4
(PID.TID 0000.0001)           No. stops:           4
(PID.TID 0000.0001)   Seconds in section "DO_WRITE_PICKUP     [FORWARD_STEP]":
(PID.TID 0000.0001)           User time:   1.9999742507934570E-003
(PID.TID 0000.0001)         System time:   1.0000001639127731E-003
(PID.TID 0000.0001)     Wall clock time:   1.1330127716064453E-002
(PID.TID 0000.0001)          No. starts:           4
(PID.TID 0000.0001)           No. stops:           4
(PID.TID 0000.0001) // ======================================================
(PID.TID 0000.0001) // Tile <-> Tile communication statistics
(PID.TID 0000.0001) // ======================================================
(PID.TID 0000.0001) // o Tile number: 000001
(PID.TID 0000.0001) //         No. X exchanges =              0
(PID.TID 0000.0001) //            Max. X spins =              0
(PID.TID 0000.0001) //            Min. X spins =     1000000000
(PID.TID 0000.0001) //          Total. X spins =              0
(PID.TID 0000.0001) //            Avg. X spins =       0.00E+00
(PID.TID 0000.0001) //         No. Y exchanges =              0
(PID.TID 0000.0001) //            Max. Y spins =              0
(PID.TID 0000.0001) //            Min. Y spins =     1000000000
(PID.TID 0000.0001) //          Total. Y spins =              0
(PID.TID 0000.0001) //            Avg. Y spins =       0.00E+00
(PID.TID 0000.0001) // o Thread number: 000001
(PID.TID 0000.0001) //            No. barriers =           9118
(PID.TID 0000.0001) //      Max. barrier spins =              1
(PID.TID 0000.0001) //      Min. barrier spins =              1
(PID.TID 0000.0001) //     Total barrier spins =           9118
(PID.TID 0000.0001) //      Avg. barrier spins =       1.00E+00
PROGRAM MAIN: Execution ended Normally
