(PID.TID 0000.0001) %MON XC_max                       =   3.3550000000000000E+02
(PID.TID 0000.0001) %MON XC_min                       =   3.3550000000000000E+02
(PID.TID 0000.0001) %MON XC_mean                      =   3.3550000000000000E+02
(PID.TID 0000.0001) %MON XC_sd                        =   0.0000000000000000E+00
(PID.TID 0000.0001) %MON XG_max                       =   3.3500000000000000E+02
(PID.TID 0000.0001) %MON XG_min                       =   3.3500000000000000E+02
(PID.TID 0000.0001) %MON XG_mean                      =   3.3500000000000000E+02
(PID.TID 0000.0001) %MON XG_sd                        =   0.0000000000000000E+00
(PID.TID 0000.0001) %MON DXC_max                      =   1.0603184087719869E+05
(PID.TID 0000.0001) %MON DXC_min                      =   1.0603184087719869E+05
(PID.TID 0000.0001) %MON DXC_mean                     =   1.0603184087719869E+05
(PID.TID 0000.0001) %MON DXC_sd                       =   0.0000000000000000E+00
(PID.TID 0000.0001) %MON DXF_max                      =   1.0603184087719869E+05
(PID.TID 0000.0001) %MON DXF_min                      =   1.0603184087719869E+05
(PID.TID 0000.0001) %MON DXF_mean                     =   1.0603184087719869E+05
(PID.TID 0000.0001) %MON DXF_sd                       =   0.0000000000000000E+00
(PID.TID 0000.0001) %MON DXG_max                      =   1.0573606049668728E+05
(PID.TID 0000.0001) %MON DXG_min                      =   1.0573606049668728E+05
(PID.TID 0000.0001) %MON DXG_mean                     =   1.0573606049668728E+05
(PID.TID 0000.0001) %MON DXG_sd                       =   0.0000000000000000E+00
(PID.TID 0000.0001) %MON DXV_max                      =   1.0573606049668728E+05
(PID.TID 0000.0001) %MON DXV_min                      =   1.0573606049668728E+05
(PID.TID 0000.0001) %MON DXV_mean                     =   1.0573606049668728E+05
(PID.TID 0000.0001) %MON DXV_sd                       =   0.0000000000000000E+00
(PID.TID 0000.0001) %MON YC_max                       =  -1.7500000000000000E+01
(PID.TID 0000.0001) %MON YC_min                       =  -1.7500000000000000E+01
(PID.TID 0000.0001) %MON YC_mean                      =  -1.7500000000000000E+01
(PID.TID 0000.0001) %MON YC_sd                        =   0.0000000000000000E+00
(PID.TID 0000.0001) %MON YG_max                       =  -1.8000000000000000E+01
(PID.TID 0000.0001) %MON YG_min                       =  -1.8000000000000000E+01
(PID.TID 0000.0001) %MON YG_mean                      =  -1.8000000000000000E+01
(PID.TID 0000.0001) %MON YG_sd                        =   0.0000000000000000E+00
(PID.TID 0000.0001) %MON DYC_max                      =   1.1117747335203880E+05
(PID.TID 0000.0001) %MON DYC_min                      =   1.1117747335203880E+05
(PID.TID 0000.0001) %MON DYC_mean                     =   1.1117747335203880E+05
(PID.TID 0000.0001) %MON DYC_sd                       =   0.0000000000000000E+00
(PID.TID 0000.0001) %MON DYF_max                      =   1.1117747335203880E+05
(PID.TID 0000.0001) %MON DYF_min                      =   1.1117747335203880E+05
(PID.TID 0000.0001) %MON DYF_mean                     =   1.1117747335203880E+05
(PID.TID 0000.0001) %MON DYF_sd                       =   0.0000000000000000E+00
(PID.TID 0000.0001) %MON DYG_max                      =   1.1117747335203880E+05
(PID.TID 0000.0001) %MON DYG_min                      =   1.1117747335203880E+05
(PID.TID 0000.0001) %MON DYG_mean                     =   1.1117747335203880E+05
(PID.TID 0000.0001) %MON DYG_sd                       =   0.0000000000000000E+00
(PID.TID 0000.0001) %MON DYU_max                      =   1.1117747335203880E+05
(PID.TID 0000.0001) %MON DYU_min                      =   1.1117747335203880E+05
(PID.TID 0000.0001) %MON DYU_mean                     =   1.1117747335203880E+05
(PID.TID 0000.0001) %MON DYU_sd                       =   0.0000000000000000E+00
(PID.TID 0000.0001) %MON RA_max                       =   1.1788202541769560E+10
(PID.TID 0000.0001) %MON RA_min                       =   1.1788202541769560E+10
(PID.TID 0000.0001) %MON RA_mean                      =   1.1788202541769560E+10
(PID.TID 0000.0001) %MON RA_sd                        =   0.0000000000000000E+00
(PID.TID 0000.0001) %MON RAW_max                      =   1.1788202541769560E+10
(PID.TID 0000.0001) %MON RAW_min                      =   1.1788202541769560E+10
(PID.TID 0000.0001) %MON RAW_mean                     =   1.1788202541769560E+10
(PID.TID 0000.0001) %MON RAW_sd                       =   0.0000000000000000E+00
(PID.TID 0000.0001) %MON RAS_max                      =   1.1755318843773766E+10
(PID.TID 0000.0001) %MON RAS_min                      =   1.1755318843773766E+10
(PID.TID 0000.0001) %MON RAS_mean                     =   1.1755318843773766E+10
(PID.TID 0000.0001) %MON RAS_sd                       =   0.0000000000000000E+00
(PID.TID 0000.0001) %MON RAZ_max                      =   1.1755318843773766E+10
(PID.TID 0000.0001) %MON RAZ_min                      =   1.1755318843773766E+10
(PID.TID 0000.0001) %MON RAZ_mean                     =   1.1755318843773766E+10
(PID.TID 0000.0001) %MON RAZ_sd                       =   0.0000000000000000E+00
(PID.TID 0000.0001) %MON AngleCS_max                  =   1.0000000000000000E+00
(PID.TID 0000.0001) %MON AngleCS_min                  =   1.0000000000000000E+00
(PID.TID 0000.0001) %MON AngleCS_mean                 =   1.0000000000000000E+00
(PID.TID 0000.0001) %MON AngleCS_sd                   =   0.0000000000000000E+00
(PID.TID 0000.0001) %MON AngleSN_max                  =   0.0000000000000000E+00
(PID.TID 0000.0001) %MON AngleSN_min                  =   0.0000000000000000E+00
(PID.TID 0000.0001) %MON AngleSN_mean                 =   0.0000000000000000E+00
(PID.TID 0000.0001) %MON AngleSN_sd                   =   0.0000000000000000E+00
(PID.TID 0000.0001) %MON fCori_max                    =  -4.3855676645210050E-05
(PID.TID 0000.0001) %MON fCori_min                    =  -4.3855676645210050E-05
(PID.TID 0000.0001) %MON fCori_mean                   =  -4.3855676645210050E-05
(PID.TID 0000.0001) %MON fCori_sd                     =   0.0000000000000000E+00
(PID.TID 0000.0001) %MON fCoriG_max                   =  -4.5067801836624727E-05
(PID.TID 0000.0001) %MON fCoriG_min                   =  -4.5067801836624727E-05
(PID.TID 0000.0001) %MON fCoriG_mean                  =  -4.5067801836624727E-05
(PID.TID 0000.0001) %MON fCoriG_sd                    =   0.0000000000000000E+00
(PID.TID 0000.0001) %MON fCoriCos_max                 =   1.3909243610206993E-04
(PID.TID 0000.0001) %MON fCoriCos_min                 =   1.3909243610206993E-04
(PID.TID 0000.0001) %MON fCoriCos_mean                =   1.3909243610206993E-04
(PID.TID 0000.0001) %MON fCoriCos_sd                  =   0.0000000000000000E+00
(PID.TID 0000.0001) %MON time_tsnumber                =                     0
(PID.TID 0000.0001) %MON time_secondsf                =   0.0000000000000000E+00
(PID.TID 0000.0001) %MON dynstat_eta_max              =   0.0000000000000000E+00
(PID.TID 0000.0001) %MON dynstat_eta_min              =   0.0000000000000000E+00
(PID.TID 0000.0001) %MON dynstat_eta_mean             =   0.0000000000000000E+00
(PID.TID 0000.0001) %MON dynstat_eta_sd               =   0.0000000000000000E+00
(PID.TID 0000.0001) %MON dynstat_eta_del2             =   0.0000000000000000E+00
(PID.TID 0000.0001) %MON dynstat_uvel_max             =   0.0000000000000000E+00
(PID.TID 0000.0001) %MON dynstat_uvel_min             =   0.0000000000000000E+00
(PID.TID 0000.0001) %MON dynstat_uvel_mean            =   0.0000000000000000E+00
(PID.TID 0000.0001) %MON dynstat_uvel_sd              =   0.0000000000000000E+00
(PID.TID 0000.0001) %MON dynstat_uvel_del2            =   0.0000000000000000E+00
(PID.TID 0000.0001) %MON dynstat_vvel_max             =   0.0000000000000000E+00
(PID.TID 0000.0001) %MON dynstat_vvel_min             =   0.0000000000000000E+00
(PID.TID 0000.0001) %MON dynstat_vvel_mean            =   0.0000000000000000E+00
(PID.TID 0000.0001) %MON dynstat_vvel_sd              =   0.0000000000000000E+00
(PID.TID 0000.0001) %MON dynstat_vvel_del2            =   0.0000000000000000E+00
(PID.TID 0000.0001) %MON dynstat_wvel_max             =   0.0000000000000000E+00
(PID.TID 0000.0001) %MON dynstat_wvel_min             =   0.0000000000000000E+00
(PID.TID 0000.0001) %MON dynstat_wvel_mean            =   0.0000000000000000E+00
(PID.TID 0000.0001) %MON dynstat_wvel_sd              =   0.0000000000000000E+00
(PID.TID 0000.0001) %MON dynstat_wvel_del2            =   0.0000000000000000E+00
(PID.TID 0000.0001) %MON dynstat_theta_max            =   2.6345800399780273E+01
(PID.TID 0000.0001) %MON dynstat_theta_min            =   2.6737000942230225E+00
(PID.TID 0000.0001) %MON dynstat_theta_mean           =   5.4735936027057521E+00
(PID.TID 0000.0001) %MON dynstat_theta_sd             =   5.1972090828105486E+00
(PID.TID 0000.0001) %MON dynstat_theta_del2           =   0.0000000000000000E+00
(PID.TID 0000.0001) %MON dynstat_salt_max             =   3.5000000000000000E+01
(PID.TID 0000.0001) %MON dynstat_salt_min             =   3.5000000000000000E+01
(PID.TID 0000.0001) %MON dynstat_salt_mean            =   3.5000000000000007E+01
(PID.TID 0000.0001) %MON dynstat_salt_sd              =   7.1054273576010019E-15
(PID.TID 0000.0001) %MON dynstat_salt_del2            =   0.0000000000000000E+00
(PID.TID 0000.0001) %MON dynstat_sst_max              =   2.6345800399780273E+01
(PID.TID 0000.0001) %MON dynstat_sst_min              =   2.6345800399780273E+01
(PID.TID 0000.0001) %MON dynstat_sst_mean             =   2.6345800399780273E+01
(PID.TID 0000.0001) %MON dynstat_sst_sd               =   0.0000000000000000E+00
(PID.TID 0000.0001) %MON dynstat_sst_del2             =   0.0000000000000000E+00
(PID.TID 0000.0001) %MON dynstat_sss_max              =   3.5000000000000000E+01
(PID.TID 0000.0001) %MON dynstat_sss_min              =   3.5000000000000000E+01
(PID.TID 0000.0001) %MON dynstat_sss_mean             =   3.5000000000000000E+01
(PID.TID 0000.0001) %MON dynstat_sss_sd               =   0.0000000000000000E+00
(PID.TID 0000.0001) %MON dynstat_sss_del2             =   0.0000000000000000E+00
(PID.TID 0000.0001) %MON forcing_qnet_max             =   0.0000000000000000E+00
(PID.TID 0000.0001) %MON forcing_qnet_min             =   0.0000000000000000E+00
(PID.TID 0000.0001) %MON forcing_qnet_mean            =   0.0000000000000000E+00
(PID.TID 0000.0001) %MON forcing_qnet_sd              =   0.0000000000000000E+00
(PID.TID 0000.0001) %MON forcing_qnet_del2            =   0.0000000000000000E+00
(PID.TID 0000.0001) %MON forcing_qsw_max              =   0.0000000000000000E+00
(PID.TID 0000.0001) %MON forcing_qsw_min              =   0.0000000000000000E+00
(PID.TID 0000.0001) %MON forcing_qsw_mean             =   0.0000000000000000E+00
(PID.TID 0000.0001) %MON forcing_qsw_sd               =   0.0000000000000000E+00
(PID.TID 0000.0001) %MON forcing_qsw_del2             =   0.0000000000000000E+00
(PID.TID 0000.0001) %MON forcing_empmr_max            =   0.0000000000000000E+00
(PID.TID 0000.0001) %MON forcing_empmr_min            =   0.0000000000000000E+00
(PID.TID 0000.0001) %MON forcing_empmr_mean           =   0.0000000000000000E+00
(PID.TID 0000.0001) %MON forcing_empmr_sd             =   0.0000000000000000E+00
(PID.TID 0000.0001) %MON forcing_empmr_del2           =   0.0000000000000000E+00
(PID.TID 0000.0001) %MON forcing_fu_max               =   0.0000000000000000E+00
(PID.TID 0000.0001) %MON forcing_fu_min               =   0.0000000000000000E+00
(PID.TID 0000.0001) %MON forcing_fu_mean              =   0.0000000000000000E+00
(PID.TID 0000.0001) %MON forcing_fu_sd                =   0.0000000000000000E+00
(PID.TID 0000.0001) %MON forcing_fu_del2              =   0.0000000000000000E+00
(PID.TID 0000.0001) %MON forcing_fv_max               =   0.0000000000000000E+00
(PID.TID 0000.0001) %MON forcing_fv_min               =   0.0000000000000000E+00
(PID.TID 0000.0001) %MON forcing_fv_mean              =   0.0000000000000000E+00
(PID.TID 0000.0001) %MON forcing_fv_sd                =   0.0000000000000000E+00
(PID.TID 0000.0001) %MON forcing_fv_del2              =   0.0000000000000000E+00
(PID.TID 0000.0001) %MON advcfl_uvel_max              =   0.0000000000000000E+00
(PID.TID 0000.0001) %MON advcfl_vvel_max              =   0.0000000000000000E+00
(PID.TID 0000.0001) %MON advcfl_wvel_max              =   0.0000000000000000E+00
(PID.TID 0000.0001) %MON advcfl_W_hf_max              =   0.0000000000000000E+00
(PID.TID 0000.0001) %MON pe_b_mean                    =   0.0000000000000000E+00
(PID.TID 0000.0001) %MON ke_max                       =   0.0000000000000000E+00
(PID.TID 0000.0001) %MON ke_mean                      =   0.0000000000000000E+00
(PID.TID 0000.0001) %MON ke_vol                       =   4.1199767883484609E+13
(PID.TID 0000.0001) %MON vort_r_min                   =   0.0000000000000000E+00
(PID.TID 0000.0001) %MON vort_r_max                   =   0.0000000000000000E+00
(PID.TID 0000.0001) %MON vort_a_mean                  =  -4.5067801836624727E-05
(PID.TID 0000.0001) %MON vort_a_sd                    =  -4.1359030627651384E-25
(PID.TID 0000.0001) %MON vort_p_mean                  =  -4.5067801836624727E-05
(PID.TID 0000.0001) %MON vort_p_sd                    =   0.0000000000000000E+00
(PID.TID 0000.0001) %MON surfExpan_theta_mean         =   0.0000000000000000E+00
(PID.TID 0000.0001) %MON surfExpan_salt_mean          =   0.0000000000000000E+00
(PID.TID 0000.0001) %MON trcstat_ptracer01_max        =                      NAN
(PID.TID 0000.0001) %MON trcstat_ptracer01_min        =                      NAN
(PID.TID 0000.0001) %MON trcstat_ptracer01_mean       =                      NAN
(PID.TID 0000.0001) %MON trcstat_ptracer01_sd         =                      NAN
(PID.TID 0000.0001) %MON trcstat_ptracer01_del2       =                      NAN
(PID.TID 0000.0001) %MON trcstat_ptracer02_max        =   2.5584036484360695E-02
(PID.TID 0000.0001) %MON trcstat_ptracer02_min        =   1.8763074649541522E-07
(PID.TID 0000.0001) %MON trcstat_ptracer02_mean       =   6.0352662496818848E-04
(PID.TID 0000.0001) %MON trcstat_ptracer02_sd         =   3.2425361014467536E-03
(PID.TID 0000.0001) %MON trcstat_ptracer02_del2       =   0.0000000000000000E+00
(PID.TID 0000.0001) %MON trcstat_ptracer03_max        =   1.8258459866046906E-02
(PID.TID 0000.0001) %MON trcstat_ptracer03_min        =   3.8796779335825704E-06
(PID.TID 0000.0001) %MON trcstat_ptracer03_mean       =   6.0474443227462045E-04
(PID.TID 0000.0001) %MON trcstat_ptracer03_sd         =   1.9428680890593122E-03
(PID.TID 0000.0001) %MON trcstat_ptracer03_del2       =   0.0000000000000000E+00
(PID.TID 0000.0001) %MON trcstat_ptracer04_max        =   3.3903499603271484E+01
(PID.TID 0000.0001) %MON trcstat_ptracer04_min        =   4.6300001442432404E-02
(PID.TID 0000.0001) %MON trcstat_ptracer04_mean       =   2.3502389802217742E+01
(PID.TID 0000.0001) %MON trcstat_ptracer04_sd         =   7.8162030599380596E+00
(PID.TID 0000.0001) %MON trcstat_ptracer04_del2       =   0.0000000000000000E+00
(PID.TID 0000.0001) %MON trcstat_ptracer05_max        =   2.2437000274658203E+00
(PID.TID 0000.0001) %MON trcstat_ptracer05_min        =   2.1024999022483826E-01
(PID.TID 0000.0001) %MON trcstat_ptracer05_mean       =   1.5821337454308768E+00
(PID.TID 0000.0001) %MON trcstat_ptracer05_sd         =   4.6735065681379767E-01
(PID.TID 0000.0001) %MON trcstat_ptracer05_del2       =   0.0000000000000000E+00
(PID.TID 0000.0001) %MON trcstat_ptracer06_max        =   3.9387401580810547E+01
(PID.TID 0000.0001) %MON trcstat_ptracer06_min        =   1.2247999906539917E+00
(PID.TID 0000.0001) %MON trcstat_ptracer06_mean       =   2.9621888811155113E+01
(PID.TID 0000.0001) %MON trcstat_ptracer06_sd         =   1.1270588565468758E+01
(PID.TID 0000.0001) %MON trcstat_ptracer06_del2       =   0.0000000000000000E+00
(PID.TID 0000.0001) %MON trcstat_ptracer07_max        =   1.3000000035390258E-03
(PID.TID 0000.0001) %MON trcstat_ptracer07_min        =   1.3000000035390258E-03
(PID.TID 0000.0001) %MON trcstat_ptracer07_mean       =   1.3000000035390258E-03
(PID.TID 0000.0001) %MON trcstat_ptracer07_sd         =   0.0000000000000000E+00
(PID.TID 0000.0001) %MON trcstat_ptracer07_del2       =   0.0000000000000000E+00
(PID.TID 0000.0001) %MON trcstat_ptracer08_max        =   6.1361303552985191E-01
(PID.TID 0000.0001) %MON trcstat_ptracer08_min        =   0.0000000000000000E+00
(PID.TID 0000.0001) %MON trcstat_ptracer08_mean       =   2.5768235051024848E-02
(PID.TID 0000.0001) %MON trcstat_ptracer08_sd         =   1.1093058611766035E-01
(PID.TID 0000.0001) %MON trcstat_ptracer08_del2       =   0.0000000000000000E+00
(PID.TID 0000.0001) %MON trcstat_ptracer09_max        =   8.1815071403980255E-02
(PID.TID 0000.0001) %MON trcstat_ptracer09_min        =   0.0000000000000000E+00
(PID.TID 0000.0001) %MON trcstat_ptracer09_mean       =   3.4357646734699799E-03
(PID.TID 0000.0001) %MON trcstat_ptracer09_sd         =   1.4790744815688046E-02
(PID.TID 0000.0001) %MON trcstat_ptracer09_del2       =   0.0000000000000000E+00
(PID.TID 0000.0001) %MON trcstat_ptracer10_max        =   5.1134419627487659E-03
(PID.TID 0000.0001) %MON trcstat_ptracer10_min        =   0.0000000000000000E+00
(PID.TID 0000.0001) %MON trcstat_ptracer10_mean       =   2.1473529209187374E-04
(PID.TID 0000.0001) %MON trcstat_ptracer10_sd         =   9.2442155098050290E-04
(PID.TID 0000.0001) %MON trcstat_ptracer10_del2       =   0.0000000000000000E+00
(PID.TID 0000.0001) %MON trcstat_ptracer11_max        =   5.1134416025888640E-06
(PID.TID 0000.0001) %MON trcstat_ptracer11_min        =   0.0000000000000000E+00
(PID.TID 0000.0001) %MON trcstat_ptracer11_mean       =   2.1473529239837693E-07
(PID.TID 0000.0001) %MON trcstat_ptracer11_sd         =   9.2442155063872205E-07
(PID.TID 0000.0001) %MON trcstat_ptracer11_del2       =   0.0000000000000000E+00
(PID.TID 0000.0001) %MON trcstat_ptracer12_max        =   3.2696326961740851E-02
(PID.TID 0000.0001) %MON trcstat_ptracer12_min        =   1.4074325918045361E-04
(PID.TID 0000.0001) %MON trcstat_ptracer12_mean       =   9.4718200756289880E-03
(PID.TID 0000.0001) %MON trcstat_ptracer12_sd         =   1.1596152472639534E-02
(PID.TID 0000.0001) %MON trcstat_ptracer12_del2       =   0.0000000000000000E+00
(PID.TID 0000.0001) %MON trcstat_ptracer13_max        =   4.3595102615654469E-03
(PID.TID 0000.0001) %MON trcstat_ptracer13_min        =   1.8765767890727147E-05
(PID.TID 0000.0001) %MON trcstat_ptracer13_mean       =   1.2629093434171983E-03
(PID.TID 0000.0001) %MON trcstat_ptracer13_sd         =   1.5461536630186044E-03
(PID.TID 0000.0001) %MON trcstat_ptracer13_del2       =   0.0000000000000000E+00
(PID.TID 0000.0001) %MON trcstat_ptracer14_max        =   2.7246939134784043E-04
(PID.TID 0000.0001) %MON trcstat_ptracer14_min        =   1.1728604931704467E-06
(PID.TID 0000.0001) %MON trcstat_ptracer14_mean       =   7.8931833963574895E-05
(PID.TID 0000.0001) %MON trcstat_ptracer14_sd         =   9.6634603938662776E-05
(PID.TID 0000.0001) %MON trcstat_ptracer14_del2       =   0.0000000000000000E+00
(PID.TID 0000.0001) %MON trcstat_ptracer15_max        =   1.6253039240837097E-02
(PID.TID 0000.0001) %MON trcstat_ptracer15_min        =   1.1382005177438259E-03
(PID.TID 0000.0001) %MON trcstat_ptracer15_mean       =   5.4894673427532239E-03
(PID.TID 0000.0001) %MON trcstat_ptracer15_sd         =   5.1731692661236344E-03
(PID.TID 0000.0001) %MON trcstat_ptracer15_del2       =   0.0000000000000000E+00
(PID.TID 0000.0001) %MON trcstat_ptracer16_max        =   2.7246940703662403E-07
(PID.TID 0000.0001) %MON trcstat_ptracer16_min        =   1.1728603643845759E-09
(PID.TID 0000.0001) %MON trcstat_ptracer16_mean       =   7.8931834490194816E-08
(PID.TID 0000.0001) %MON trcstat_ptracer16_sd         =   9.6634605997272585E-08
(PID.TID 0000.0001) %MON trcstat_ptracer16_del2       =   0.0000000000000000E+00
(PID.TID 0000.0001) %MON trcstat_ptracer17_max        =                      NAN
(PID.TID 0000.0001) %MON trcstat_ptracer17_min        =                      NAN
(PID.TID 0000.0001) %MON trcstat_ptracer17_mean       =                      NAN
(PID.TID 0000.0001) %MON trcstat_ptracer17_sd         =                      NAN
(PID.TID 0000.0001) %MON trcstat_ptracer17_del2       =                      NAN
(PID.TID 0000.0001) %MON trcstat_ptracer18_max        =   8.8153867181972601E-04
(PID.TID 0000.0001) %MON trcstat_ptracer18_min        =   0.0000000000000000E+00
(PID.TID 0000.0001) %MON trcstat_ptracer18_mean       =   2.6284899836225207E-05
(PID.TID 0000.0001) %MON trcstat_ptracer18_sd         =   1.3780694875415345E-04
(PID.TID 0000.0001) %MON trcstat_ptracer18_del2       =   0.0000000000000000E+00
(PID.TID 0000.0001) %MON trcstat_ptracer19_max        =   8.8153867181972601E-04
(PID.TID 0000.0001) %MON trcstat_ptracer19_min        =   0.0000000000000000E+00
(PID.TID 0000.0001) %MON trcstat_ptracer19_mean       =   2.6284899836225207E-05
(PID.TID 0000.0001) %MON trcstat_ptracer19_sd         =   1.3780694875415345E-04
(PID.TID 0000.0001) %MON trcstat_ptracer19_del2       =   0.0000000000000000E+00
(PID.TID 0000.0001) %MON trcstat_ptracer20_max        =   8.8153867181972601E-04
(PID.TID 0000.0001) %MON trcstat_ptracer20_min        =   0.0000000000000000E+00
(PID.TID 0000.0001) %MON trcstat_ptracer20_mean       =   2.6284899836225207E-05
(PID.TID 0000.0001) %MON trcstat_ptracer20_sd         =   1.3780694875415345E-04
(PID.TID 0000.0001) %MON trcstat_ptracer20_del2       =   0.0000000000000000E+00
(PID.TID 0000.0001) %MON trcstat_ptracer21_max        =   8.8153867181972601E-04
(PID.TID 0000.0001) %MON trcstat_ptracer21_min        =   0.0000000000000000E+00
(PID.TID 0000.0001) %MON trcstat_ptracer21_mean       =   2.6284899836225207E-05
(PID.TID 0000.0001) %MON trcstat_ptracer21_sd         =   1.3780694875415345E-04
(PID.TID 0000.0001) %MON trcstat_ptracer21_del2       =   0.0000000000000000E+00
(PID.TID 0000.0001) %MON trcstat_ptracer22_max        =   8.8153867181972601E-04
(PID.TID 0000.0001) %MON trcstat_ptracer22_min        =   0.0000000000000000E+00
(PID.TID 0000.0001) %MON trcstat_ptracer22_mean       =   2.6284899836225207E-05
(PID.TID 0000.0001) %MON trcstat_ptracer22_sd         =   1.3780694875415345E-04
(PID.TID 0000.0001) %MON trcstat_ptracer22_del2       =   0.0000000000000000E+00
(PID.TID 0000.0001) %MON trcstat_ptracer23_max        =   8.8153867181972601E-04
(PID.TID 0000.0001) %MON trcstat_ptracer23_min        =   0.0000000000000000E+00
(PID.TID 0000.0001) %MON trcstat_ptracer23_mean       =   2.6284899836225207E-05
(PID.TID 0000.0001) %MON trcstat_ptracer23_sd         =   1.3780694875415345E-04
(PID.TID 0000.0001) %MON trcstat_ptracer23_del2       =   0.0000000000000000E+00
(PID.TID 0000.0001) %MON trcstat_ptracer24_max        =   8.8153867181972601E-04
(PID.TID 0000.0001) %MON trcstat_ptracer24_min        =   0.0000000000000000E+00
(PID.TID 0000.0001) %MON trcstat_ptracer24_mean       =   2.6284899836225207E-05
(PID.TID 0000.0001) %MON trcstat_ptracer24_sd         =   1.3780694875415345E-04
(PID.TID 0000.0001) %MON trcstat_ptracer24_del2       =   0.0000000000000000E+00
(PID.TID 0000.0001) %MON trcstat_ptracer25_max        =   8.8153867181972601E-04
(PID.TID 0000.0001) %MON trcstat_ptracer25_min        =   0.0000000000000000E+00
(PID.TID 0000.0001) %MON trcstat_ptracer25_mean       =   2.6284899836225207E-05
(PID.TID 0000.0001) %MON trcstat_ptracer25_sd         =   1.3780694875415345E-04
(PID.TID 0000.0001) %MON trcstat_ptracer25_del2       =   0.0000000000000000E+00
(PID.TID 0000.0001) %MON trcstat_ptracer26_max        =   8.8153867181972601E-04
(PID.TID 0000.0001) %MON trcstat_ptracer26_min        =   0.0000000000000000E+00
(PID.TID 0000.0001) %MON trcstat_ptracer26_mean       =   2.6284899836225207E-05
(PID.TID 0000.0001) %MON trcstat_ptracer26_sd         =   1.3780694875415345E-04
(PID.TID 0000.0001) %MON trcstat_ptracer26_del2       =   0.0000000000000000E+00
(PID.TID 0000.0001) %MON trcstat_ptracer27_max        =   8.8153867181972601E-04
(PID.TID 0000.0001) %MON trcstat_ptracer27_min        =   0.0000000000000000E+00
(PID.TID 0000.0001) %MON trcstat_ptracer27_mean       =   2.6284899836225207E-05
(PID.TID 0000.0001) %MON trcstat_ptracer27_sd         =   1.3780694875415345E-04
(PID.TID 0000.0001) %MON trcstat_ptracer27_del2       =   0.0000000000000000E+00
(PID.TID 0000.0001) %MON trcstat_ptracer28_max        =   8.8153867181972601E-04
(PID.TID 0000.0001) %MON trcstat_ptracer28_min        =   0.0000000000000000E+00
(PID.TID 0000.0001) %MON trcstat_ptracer28_mean       =   2.6284899836225207E-05
(PID.TID 0000.0001) %MON trcstat_ptracer28_sd         =   1.3780694875415345E-04
(PID.TID 0000.0001) %MON trcstat_ptracer28_del2       =   0.0000000000000000E+00
(PID.TID 0000.0001) %MON trcstat_ptracer29_max        =   8.8153867181972601E-04
(PID.TID 0000.0001) %MON trcstat_ptracer29_min        =   0.0000000000000000E+00
(PID.TID 0000.0001) %MON trcstat_ptracer29_mean       =   2.6284899836225207E-05
(PID.TID 0000.0001) %MON trcstat_ptracer29_sd         =   1.3780694875415345E-04
(PID.TID 0000.0001) %MON trcstat_ptracer29_del2       =   0.0000000000000000E+00
(PID.TID 0000.0001) %MON trcstat_ptracer30_max        =   8.8153867181972601E-04
(PID.TID 0000.0001) %MON trcstat_ptracer30_min        =   0.0000000000000000E+00
(PID.TID 0000.0001) %MON trcstat_ptracer30_mean       =   2.6284899836225207E-05
(PID.TID 0000.0001) %MON trcstat_ptracer30_sd         =   1.3780694875415345E-04
(PID.TID 0000.0001) %MON trcstat_ptracer30_del2       =   0.0000000000000000E+00
(PID.TID 0000.0001) %MON trcstat_ptracer31_max        =   8.8153867181972601E-04
(PID.TID 0000.0001) %MON trcstat_ptracer31_min        =   0.0000000000000000E+00
(PID.TID 0000.0001) %MON trcstat_ptracer31_mean       =   2.6284899836225207E-05
(PID.TID 0000.0001) %MON trcstat_ptracer31_sd         =   1.3780694875415345E-04
(PID.TID 0000.0001) %MON trcstat_ptracer31_del2       =   0.0000000000000000E+00
(PID.TID 0000.0001) %MON trcstat_ptracer32_max        =   8.8153867181972601E-04
(PID.TID 0000.0001) %MON trcstat_ptracer32_min        =   0.0000000000000000E+00
(PID.TID 0000.0001) %MON trcstat_ptracer32_mean       =   2.6284899836225207E-05
(PID.TID 0000.0001) %MON trcstat_ptracer32_sd         =   1.3780694875415345E-04
(PID.TID 0000.0001) %MON trcstat_ptracer32_del2       =   0.0000000000000000E+00
(PID.TID 0000.0001) %MON trcstat_ptracer33_max        =   8.8153867181972601E-04
(PID.TID 0000.0001) %MON trcstat_ptracer33_min        =   0.0000000000000000E+00
(PID.TID 0000.0001) %MON trcstat_ptracer33_mean       =   2.6284899836225207E-05
(PID.TID 0000.0001) %MON trcstat_ptracer33_sd         =   1.3780694875415345E-04
(PID.TID 0000.0001) %MON trcstat_ptracer33_del2       =   0.0000000000000000E+00
(PID.TID 0000.0001) %MON trcstat_ptracer34_max        =   8.8153867181972601E-04
(PID.TID 0000.0001) %MON trcstat_ptracer34_min        =   0.0000000000000000E+00
(PID.TID 0000.0001) %MON trcstat_ptracer34_mean       =   2.6284899836225207E-05
(PID.TID 0000.0001) %MON trcstat_ptracer34_sd         =   1.3780694875415345E-04
(PID.TID 0000.0001) %MON trcstat_ptracer34_del2       =   0.0000000000000000E+00
(PID.TID 0000.0001) %MON trcstat_ptracer35_max        =   8.8153867181972601E-04
(PID.TID 0000.0001) %MON trcstat_ptracer35_min        =   0.0000000000000000E+00
(PID.TID 0000.0001) %MON trcstat_ptracer35_mean       =   2.6284899836225207E-05
(PID.TID 0000.0001) %MON trcstat_ptracer35_sd         =   1.3780694875415345E-04
(PID.TID 0000.0001) %MON trcstat_ptracer35_del2       =   0.0000000000000000E+00
(PID.TID 0000.0001) %MON trcstat_ptracer36_max        =   8.8153867181972601E-04
(PID.TID 0000.0001) %MON trcstat_ptracer36_min        =   0.0000000000000000E+00
(PID.TID 0000.0001) %MON trcstat_ptracer36_mean       =   2.6284899836225207E-05
(PID.TID 0000.0001) %MON trcstat_ptracer36_sd         =   1.3780694875415345E-04
(PID.TID 0000.0001) %MON trcstat_ptracer36_del2       =   0.0000000000000000E+00
(PID.TID 0000.0001) %MON trcstat_ptracer37_max        =   8.8153867181972601E-04
(PID.TID 0000.0001) %MON trcstat_ptracer37_min        =   0.0000000000000000E+00
(PID.TID 0000.0001) %MON trcstat_ptracer37_mean       =   2.6284899836225207E-05
(PID.TID 0000.0001) %MON trcstat_ptracer37_sd         =   1.3780694875415345E-04
(PID.TID 0000.0001) %MON trcstat_ptracer37_del2       =   0.0000000000000000E+00
(PID.TID 0000.0001) %MON trcstat_ptracer38_max        =   8.8153867181972601E-04
(PID.TID 0000.0001) %MON trcstat_ptracer38_min        =   0.0000000000000000E+00
(PID.TID 0000.0001) %MON trcstat_ptracer38_mean       =   2.6284899836225207E-05
(PID.TID 0000.0001) %MON trcstat_ptracer38_sd         =   1.3780694875415345E-04
(PID.TID 0000.0001) %MON trcstat_ptracer38_del2       =   0.0000000000000000E+00
(PID.TID 0000.0001) %MON trcstat_ptracer39_max        =   8.8153867181972601E-04
(PID.TID 0000.0001) %MON trcstat_ptracer39_min        =   0.0000000000000000E+00
(PID.TID 0000.0001) %MON trcstat_ptracer39_mean       =   2.6284899836225207E-05
(PID.TID 0000.0001) %MON trcstat_ptracer39_sd         =   1.3780694875415345E-04
(PID.TID 0000.0001) %MON trcstat_ptracer39_del2       =   0.0000000000000000E+00
(PID.TID 0000.0001) %MON trcstat_ptracer40_max        =   8.8153867181972601E-04
(PID.TID 0000.0001) %MON trcstat_ptracer40_min        =   0.0000000000000000E+00
(PID.TID 0000.0001) %MON trcstat_ptracer40_mean       =   2.6284899836225207E-05
(PID.TID 0000.0001) %MON trcstat_ptracer40_sd         =   1.3780694875415345E-04
(PID.TID 0000.0001) %MON trcstat_ptracer40_del2       =   0.0000000000000000E+00
(PID.TID 0000.0001) %MON trcstat_ptracer41_max        =   8.8153867181972601E-04
(PID.TID 0000.0001) %MON trcstat_ptracer41_min        =   0.0000000000000000E+00
(PID.TID 0000.0001) %MON trcstat_ptracer41_mean       =   2.6284899836225207E-05
(PID.TID 0000.0001) %MON trcstat_ptracer41_sd         =   1.3780694875415345E-04
(PID.TID 0000.0001) %MON trcstat_ptracer41_del2       =   0.0000000000000000E+00
(PID.TID 0000.0001) %MON trcstat_ptracer42_max        =   8.8153867181972601E-04
(PID.TID 0000.0001) %MON trcstat_ptracer42_min        =   0.0000000000000000E+00
(PID.TID 0000.0001) %MON trcstat_ptracer42_mean       =   2.6284899836225207E-05
(PID.TID 0000.0001) %MON trcstat_ptracer42_sd         =   1.3780694875415345E-04
(PID.TID 0000.0001) %MON trcstat_ptracer42_del2       =   0.0000000000000000E+00
(PID.TID 0000.0001) %MON trcstat_ptracer43_max        =   8.8153867181972601E-04
(PID.TID 0000.0001) %MON trcstat_ptracer43_min        =   0.0000000000000000E+00
(PID.TID 0000.0001) %MON trcstat_ptracer43_mean       =   2.6284899836225207E-05
(PID.TID 0000.0001) %MON trcstat_ptracer43_sd         =   1.3780694875415345E-04
(PID.TID 0000.0001) %MON trcstat_ptracer43_del2       =   0.0000000000000000E+00
(PID.TID 0000.0001) %MON trcstat_ptracer44_max        =   8.8153867181972601E-04
(PID.TID 0000.0001) %MON trcstat_ptracer44_min        =   0.0000000000000000E+00
(PID.TID 0000.0001) %MON trcstat_ptracer44_mean       =   2.6284899836225207E-05
(PID.TID 0000.0001) %MON trcstat_ptracer44_sd         =   1.3780694875415345E-04
(PID.TID 0000.0001) %MON trcstat_ptracer44_del2       =   0.0000000000000000E+00
(PID.TID 0000.0001) %MON trcstat_ptracer45_max        =   8.8153867181972601E-04
(PID.TID 0000.0001) %MON trcstat_ptracer45_min        =   0.0000000000000000E+00
(PID.TID 0000.0001) %MON trcstat_ptracer45_mean       =   2.6284899836225207E-05
(PID.TID 0000.0001) %MON trcstat_ptracer45_sd         =   1.3780694875415345E-04
(PID.TID 0000.0001) %MON trcstat_ptracer45_del2       =   0.0000000000000000E+00
(PID.TID 0000.0001) %MON trcstat_ptracer46_max        =   8.8153867181972601E-04
(PID.TID 0000.0001) %MON trcstat_ptracer46_min        =   0.0000000000000000E+00
(PID.TID 0000.0001) %MON trcstat_ptracer46_mean       =   2.6284899836225207E-05
(PID.TID 0000.0001) %MON trcstat_ptracer46_sd         =   1.3780694875415345E-04
(PID.TID 0000.0001) %MON trcstat_ptracer46_del2       =   0.0000000000000000E+00
(PID.TID 0000.0001) %MON trcstat_ptracer47_max        =   8.8153867181972601E-04
(PID.TID 0000.0001) %MON trcstat_ptracer47_min        =   0.0000000000000000E+00
(PID.TID 0000.0001) %MON trcstat_ptracer47_mean       =   2.6284899836225207E-05
(PID.TID 0000.0001) %MON trcstat_ptracer47_sd         =   1.3780694875415345E-04
(PID.TID 0000.0001) %MON trcstat_ptracer47_del2       =   0.0000000000000000E+00
(PID.TID 0000.0001) %MON trcstat_ptracer48_max        =   8.8153867181972601E-04
(PID.TID 0000.0001) %MON trcstat_ptracer48_min        =   0.0000000000000000E+00
(PID.TID 0000.0001) %MON trcstat_ptracer48_mean       =   2.6284899836225207E-05
(PID.TID 0000.0001) %MON trcstat_ptracer48_sd         =   1.3780694875415345E-04
(PID.TID 0000.0001) %MON trcstat_ptracer48_del2       =   0.0000000000000000E+00
(PID.TID 0000.0001) %MON trcstat_ptracer49_max        =   8.8153867181972601E-04
(PID.TID 0000.0001) %MON trcstat_ptracer49_min        =   0.0000000000000000E+00
(PID.TID 0000.0001) %MON trcstat_ptracer49_mean       =   2.6284899836225207E-05
(PID.TID 0000.0001) %MON trcstat_ptracer49_sd         =   1.3780694875415345E-04
(PID.TID 0000.0001) %MON trcstat_ptracer49_del2       =   0.0000000000000000E+00
(PID.TID 0000.0001) %MON trcstat_ptracer50_max        =   8.8153867181972601E-04
(PID.TID 0000.0001) %MON trcstat_ptracer50_min        =   0.0000000000000000E+00
(PID.TID 0000.0001) %MON trcstat_ptracer50_mean       =   2.6284899836225207E-05
(PID.TID 0000.0001) %MON trcstat_ptracer50_sd         =   1.3780694875415345E-04
(PID.TID 0000.0001) %MON trcstat_ptracer50_del2       =   0.0000000000000000E+00
(PID.TID 0000.0001) %MON trcstat_ptracer51_max        =   8.8153867181972601E-04
(PID.TID 0000.0001) %MON trcstat_ptracer51_min        =   0.0000000000000000E+00
(PID.TID 0000.0001) %MON trcstat_ptracer51_mean       =   2.6284899836225207E-05
(PID.TID 0000.0001) %MON trcstat_ptracer51_sd         =   1.3780694875415345E-04
(PID.TID 0000.0001) %MON trcstat_ptracer51_del2       =   0.0000000000000000E+00
(PID.TID 0000.0001) %MON trcstat_ptracer52_max        =   8.8153867181972601E-04
(PID.TID 0000.0001) %MON trcstat_ptracer52_min        =   0.0000000000000000E+00
(PID.TID 0000.0001) %MON trcstat_ptracer52_mean       =   2.6284899836225207E-05
(PID.TID 0000.0001) %MON trcstat_ptracer52_sd         =   1.3780694875415345E-04
(PID.TID 0000.0001) %MON trcstat_ptracer52_del2       =   0.0000000000000000E+00
(PID.TID 0000.0001) %MON trcstat_ptracer53_max        =   8.8153867181972601E-04
(PID.TID 0000.0001) %MON trcstat_ptracer53_min        =   0.0000000000000000E+00
(PID.TID 0000.0001) %MON trcstat_ptracer53_mean       =   2.6284899836225207E-05
(PID.TID 0000.0001) %MON trcstat_ptracer53_sd         =   1.3780694875415345E-04
(PID.TID 0000.0001) %MON trcstat_ptracer53_del2       =   0.0000000000000000E+00
(PID.TID 0000.0001) %MON trcstat_ptracer54_max        =   8.8153867181972601E-04
(PID.TID 0000.0001) %MON trcstat_ptracer54_min        =   0.0000000000000000E+00
(PID.TID 0000.0001) %MON trcstat_ptracer54_mean       =   2.6284899836225207E-05
(PID.TID 0000.0001) %MON trcstat_ptracer54_sd         =   1.3780694875415345E-04
(PID.TID 0000.0001) %MON trcstat_ptracer54_del2       =   0.0000000000000000E+00
(PID.TID 0000.0001) %MON trcstat_ptracer55_max        =   8.8153867181972601E-04
(PID.TID 0000.0001) %MON trcstat_ptracer55_min        =   0.0000000000000000E+00
(PID.TID 0000.0001) %MON trcstat_ptracer55_mean       =   2.6284899836225207E-05
(PID.TID 0000.0001) %MON trcstat_ptracer55_sd         =   1.3780694875415345E-04
(PID.TID 0000.0001) %MON trcstat_ptracer55_del2       =   0.0000000000000000E+00
(PID.TID 0000.0001) %MON trcstat_ptracer56_max        =   8.8153867181972601E-04
(PID.TID 0000.0001) %MON trcstat_ptracer56_min        =   0.0000000000000000E+00
(PID.TID 0000.0001) %MON trcstat_ptracer56_mean       =   2.6284899836225207E-05
(PID.TID 0000.0001) %MON trcstat_ptracer56_sd         =   1.3780694875415345E-04
(PID.TID 0000.0001) %MON trcstat_ptracer56_del2       =   0.0000000000000000E+00
(PID.TID 0000.0001) %MON trcstat_ptracer57_max        =   8.8153867181972601E-04
(PID.TID 0000.0001) %MON trcstat_ptracer57_min        =   0.0000000000000000E+00
(PID.TID 0000.0001) %MON trcstat_ptracer57_mean       =   2.6284899836225207E-05
(PID.TID 0000.0001) %MON trcstat_ptracer57_sd         =   1.3780694875415345E-04
(PID.TID 0000.0001) %MON trcstat_ptracer57_del2       =   0.0000000000000000E+00
(PID.TID 0000.0001) %MON trcstat_ptracer58_max        =   8.8153867181972601E-04
(PID.TID 0000.0001) %MON trcstat_ptracer58_min        =   0.0000000000000000E+00
(PID.TID 0000.0001) %MON trcstat_ptracer58_mean       =   2.6284899836225207E-05
(PID.TID 0000.0001) %MON trcstat_ptracer58_sd         =   1.3780694875415345E-04
(PID.TID 0000.0001) %MON trcstat_ptracer58_del2       =   0.0000000000000000E+00
(PID.TID 0000.0001) %MON trcstat_ptracer59_max        =   8.8153867181972601E-04
(PID.TID 0000.0001) %MON trcstat_ptracer59_min        =   0.0000000000000000E+00
(PID.TID 0000.0001) %MON trcstat_ptracer59_mean       =   2.6284899836225207E-05
(PID.TID 0000.0001) %MON trcstat_ptracer59_sd         =   1.3780694875415345E-04
(PID.TID 0000.0001) %MON trcstat_ptracer59_del2       =   0.0000000000000000E+00
(PID.TID 0000.0001) %MON trcstat_ptracer60_max        =   8.8153867181972601E-04
(PID.TID 0000.0001) %MON trcstat_ptracer60_min        =   0.0000000000000000E+00
(PID.TID 0000.0001) %MON trcstat_ptracer60_mean       =   2.6284899836225207E-05
(PID.TID 0000.0001) %MON trcstat_ptracer60_sd         =   1.3780694875415345E-04
(PID.TID 0000.0001) %MON trcstat_ptracer60_del2       =   0.0000000000000000E+00
(PID.TID 0000.0001) %MON trcstat_ptracer61_max        =   8.8153867181972601E-04
(PID.TID 0000.0001) %MON trcstat_ptracer61_min        =   0.0000000000000000E+00
(PID.TID 0000.0001) %MON trcstat_ptracer61_mean       =   2.6284899836225207E-05
(PID.TID 0000.0001) %MON trcstat_ptracer61_sd         =   1.3780694875415345E-04
(PID.TID 0000.0001) %MON trcstat_ptracer61_del2       =   0.0000000000000000E+00
(PID.TID 0000.0001) %MON trcstat_ptracer62_max        =   8.8153867181972601E-04
(PID.TID 0000.0001) %MON trcstat_ptracer62_min        =   0.0000000000000000E+00
(PID.TID 0000.0001) %MON trcstat_ptracer62_mean       =   2.6284899836225207E-05
(PID.TID 0000.0001) %MON trcstat_ptracer62_sd         =   1.3780694875415345E-04
(PID.TID 0000.0001) %MON trcstat_ptracer62_del2       =   0.0000000000000000E+00
(PID.TID 0000.0001) %MON trcstat_ptracer63_max        =   8.8153867181972601E-04
(PID.TID 0000.0001) %MON trcstat_ptracer63_min        =   0.0000000000000000E+00
(PID.TID 0000.0001) %MON trcstat_ptracer63_mean       =   2.6284899836225207E-05
(PID.TID 0000.0001) %MON trcstat_ptracer63_sd         =   1.3780694875415345E-04
(PID.TID 0000.0001) %MON trcstat_ptracer63_del2       =   0.0000000000000000E+00
(PID.TID 0000.0001) %MON trcstat_ptracer64_max        =   8.8153867181972601E-04
(PID.TID 0000.0001) %MON trcstat_ptracer64_min        =   0.0000000000000000E+00
(PID.TID 0000.0001) %MON trcstat_ptracer64_mean       =   2.6284899836225207E-05
(PID.TID 0000.0001) %MON trcstat_ptracer64_sd         =   1.3780694875415345E-04
(PID.TID 0000.0001) %MON trcstat_ptracer64_del2       =   0.0000000000000000E+00
(PID.TID 0000.0001) %MON trcstat_ptracer65_max        =   8.8153867181972601E-04
(PID.TID 0000.0001) %MON trcstat_ptracer65_min        =   0.0000000000000000E+00
(PID.TID 0000.0001) %MON trcstat_ptracer65_mean       =   2.6284899836225207E-05
(PID.TID 0000.0001) %MON trcstat_ptracer65_sd         =   1.3780694875415345E-04
(PID.TID 0000.0001) %MON trcstat_ptracer65_del2       =   0.0000000000000000E+00
(PID.TID 0000.0001) %MON trcstat_ptracer66_max        =   8.8153867181972601E-04
(PID.TID 0000.0001) %MON trcstat_ptracer66_min        =   0.0000000000000000E+00
(PID.TID 0000.0001) %MON trcstat_ptracer66_mean       =   2.6284899836225207E-05
(PID.TID 0000.0001) %MON trcstat_ptracer66_sd         =   1.3780694875415345E-04
(PID.TID 0000.0001) %MON trcstat_ptracer66_del2       =   0.0000000000000000E+00
(PID.TID 0000.0001) %MON trcstat_ptracer67_max        =   8.8153867181972601E-04
(PID.TID 0000.0001) %MON trcstat_ptracer67_min        =   0.0000000000000000E+00
(PID.TID 0000.0001) %MON trcstat_ptracer67_mean       =   2.6284899836225207E-05
(PID.TID 0000.0001) %MON trcstat_ptracer67_sd         =   1.3780694875415345E-04
(PID.TID 0000.0001) %MON trcstat_ptracer67_del2       =   0.0000000000000000E+00
(PID.TID 0000.0001) %MON trcstat_ptracer68_max        =   8.8153867181972601E-04
(PID.TID 0000.0001) %MON trcstat_ptracer68_min        =   0.0000000000000000E+00
(PID.TID 0000.0001) %MON trcstat_ptracer68_mean       =   2.6284899836225207E-05
(PID.TID 0000.0001) %MON trcstat_ptracer68_sd         =   1.3780694875415345E-04
(PID.TID 0000.0001) %MON trcstat_ptracer68_del2       =   0.0000000000000000E+00
(PID.TID 0000.0001) %MON trcstat_ptracer69_max        =   8.8153867181972601E-04
(PID.TID 0000.0001) %MON trcstat_ptracer69_min        =   0.0000000000000000E+00
(PID.TID 0000.0001) %MON trcstat_ptracer69_mean       =   2.6284899836225207E-05
(PID.TID 0000.0001) %MON trcstat_ptracer69_sd         =   1.3780694875415345E-04
(PID.TID 0000.0001) %MON trcstat_ptracer69_del2       =   0.0000000000000000E+00
(PID.TID 0000.0001) %MON trcstat_ptracer70_max        =   8.8153867181972601E-04
(PID.TID 0000.0001) %MON trcstat_ptracer70_min        =   0.0000000000000000E+00
(PID.TID 0000.0001) %MON trcstat_ptracer70_mean       =   2.6284899836225207E-05
(PID.TID 0000.0001) %MON trcstat_ptracer70_sd         =   1.3780694875415345E-04
(PID.TID 0000.0001) %MON trcstat_ptracer70_del2       =   0.0000000000000000E+00
(PID.TID 0000.0001) %MON trcstat_ptracer71_max        =   8.8153867181972601E-04
(PID.TID 0000.0001) %MON trcstat_ptracer71_min        =   0.0000000000000000E+00
(PID.TID 0000.0001) %MON trcstat_ptracer71_mean       =   2.6284899836225207E-05
(PID.TID 0000.0001) %MON trcstat_ptracer71_sd         =   1.3780694875415345E-04
(PID.TID 0000.0001) %MON trcstat_ptracer71_del2       =   0.0000000000000000E+00
(PID.TID 0000.0001) %MON trcstat_ptracer72_max        =   8.8153867181972601E-04
(PID.TID 0000.0001) %MON trcstat_ptracer72_min        =   0.0000000000000000E+00
(PID.TID 0000.0001) %MON trcstat_ptracer72_mean       =   2.6284899836225207E-05
(PID.TID 0000.0001) %MON trcstat_ptracer72_sd         =   1.3780694875415345E-04
(PID.TID 0000.0001) %MON trcstat_ptracer72_del2       =   0.0000000000000000E+00
(PID.TID 0000.0001) %MON trcstat_ptracer73_max        =   8.8153867181972601E-04
(PID.TID 0000.0001) %MON trcstat_ptracer73_min        =   0.0000000000000000E+00
(PID.TID 0000.0001) %MON trcstat_ptracer73_mean       =   2.6284899836225207E-05
(PID.TID 0000.0001) %MON trcstat_ptracer73_sd         =   1.3780694875415345E-04
(PID.TID 0000.0001) %MON trcstat_ptracer73_del2       =   0.0000000000000000E+00
(PID.TID 0000.0001) %MON trcstat_ptracer74_max        =   8.8153867181972601E-04
(PID.TID 0000.0001) %MON trcstat_ptracer74_min        =   0.0000000000000000E+00
(PID.TID 0000.0001) %MON trcstat_ptracer74_mean       =   2.6284899836225207E-05
(PID.TID 0000.0001) %MON trcstat_ptracer74_sd         =   1.3780694875415345E-04
(PID.TID 0000.0001) %MON trcstat_ptracer74_del2       =   0.0000000000000000E+00
(PID.TID 0000.0001) %MON trcstat_ptracer75_max        =   8.8153867181972601E-04
(PID.TID 0000.0001) %MON trcstat_ptracer75_min        =   0.0000000000000000E+00
(PID.TID 0000.0001) %MON trcstat_ptracer75_mean       =   2.6284899836225207E-05
(PID.TID 0000.0001) %MON trcstat_ptracer75_sd         =   1.3780694875415345E-04
(PID.TID 0000.0001) %MON trcstat_ptracer75_del2       =   0.0000000000000000E+00
(PID.TID 0000.0001) %MON trcstat_ptracer76_max        =   8.8153867181972601E-04
(PID.TID 0000.0001) %MON trcstat_ptracer76_min        =   0.0000000000000000E+00
(PID.TID 0000.0001) %MON trcstat_ptracer76_mean       =   2.6284899836225207E-05
(PID.TID 0000.0001) %MON trcstat_ptracer76_sd         =   1.3780694875415345E-04
(PID.TID 0000.0001) %MON trcstat_ptracer76_del2       =   0.0000000000000000E+00
(PID.TID 0000.0001) %MON trcstat_ptracer77_max        =   8.8153867181972601E-04
(PID.TID 0000.0001) %MON trcstat_ptracer77_min        =   0.0000000000000000E+00
(PID.TID 0000.0001) %MON trcstat_ptracer77_mean       =   2.6284899836225207E-05
(PID.TID 0000.0001) %MON trcstat_ptracer77_sd         =   1.3780694875415345E-04
(PID.TID 0000.0001) %MON trcstat_ptracer77_del2       =   0.0000000000000000E+00
(PID.TID 0000.0001) %MON trcstat_ptracer78_max        =   8.8153867181972601E-04
(PID.TID 0000.0001) %MON trcstat_ptracer78_min        =   0.0000000000000000E+00
(PID.TID 0000.0001) %MON trcstat_ptracer78_mean       =   2.6284899836225207E-05
(PID.TID 0000.0001) %MON trcstat_ptracer78_sd         =   1.3780694875415345E-04
(PID.TID 0000.0001) %MON trcstat_ptracer78_del2       =   0.0000000000000000E+00
(PID.TID 0000.0001) %MON trcstat_ptracer79_max        =   8.8153867181972601E-04
(PID.TID 0000.0001) %MON trcstat_ptracer79_min        =   0.0000000000000000E+00
(PID.TID 0000.0001) %MON trcstat_ptracer79_mean       =   2.6284899836225207E-05
(PID.TID 0000.0001) %MON trcstat_ptracer79_sd         =   1.3780694875415345E-04
(PID.TID 0000.0001) %MON trcstat_ptracer79_del2       =   0.0000000000000000E+00
(PID.TID 0000.0001) %MON trcstat_ptracer80_max        =   8.8153867181972601E-04
(PID.TID 0000.0001) %MON trcstat_ptracer80_min        =   0.0000000000000000E+00
(PID.TID 0000.0001) %MON trcstat_ptracer80_mean       =   2.6284899836225207E-05
(PID.TID 0000.0001) %MON trcstat_ptracer80_sd         =   1.3780694875415345E-04
(PID.TID 0000.0001) %MON trcstat_ptracer80_del2       =   0.0000000000000000E+00
(PID.TID 0000.0001) %MON trcstat_ptracer81_max        =   8.8153867181972601E-04
(PID.TID 0000.0001) %MON trcstat_ptracer81_min        =   0.0000000000000000E+00
(PID.TID 0000.0001) %MON trcstat_ptracer81_mean       =   2.6284899836225207E-05
(PID.TID 0000.0001) %MON trcstat_ptracer81_sd         =   1.3780694875415345E-04
(PID.TID 0000.0001) %MON trcstat_ptracer81_del2       =   0.0000000000000000E+00
(PID.TID 0000.0001) %MON trcstat_ptracer82_max        =   8.8153867181972601E-04
(PID.TID 0000.0001) %MON trcstat_ptracer82_min        =   0.0000000000000000E+00
(PID.TID 0000.0001) %MON trcstat_ptracer82_mean       =   2.6284899836225207E-05
(PID.TID 0000.0001) %MON trcstat_ptracer82_sd         =   1.3780694875415345E-04
(PID.TID 0000.0001) %MON trcstat_ptracer82_del2       =   0.0000000000000000E+00
(PID.TID 0000.0001) %MON trcstat_ptracer83_max        =   8.8153867181972601E-04
(PID.TID 0000.0001) %MON trcstat_ptracer83_min        =   0.0000000000000000E+00
(PID.TID 0000.0001) %MON trcstat_ptracer83_mean       =   2.6284899836225207E-05
(PID.TID 0000.0001) %MON trcstat_ptracer83_sd         =   1.3780694875415345E-04
(PID.TID 0000.0001) %MON trcstat_ptracer83_del2       =   0.0000000000000000E+00
(PID.TID 0000.0001) %MON trcstat_ptracer84_max        =   8.8153867181972601E-04
(PID.TID 0000.0001) %MON trcstat_ptracer84_min        =   0.0000000000000000E+00
(PID.TID 0000.0001) %MON trcstat_ptracer84_mean       =   2.6284899836225207E-05
(PID.TID 0000.0001) %MON trcstat_ptracer84_sd         =   1.3780694875415345E-04
(PID.TID 0000.0001) %MON trcstat_ptracer84_del2       =   0.0000000000000000E+00
(PID.TID 0000.0001) %MON trcstat_ptracer85_max        =   8.8153867181972601E-04
(PID.TID 0000.0001) %MON trcstat_ptracer85_min        =   0.0000000000000000E+00
(PID.TID 0000.0001) %MON trcstat_ptracer85_mean       =   2.6284899836225207E-05
(PID.TID 0000.0001) %MON trcstat_ptracer85_sd         =   1.3780694875415345E-04
(PID.TID 0000.0001) %MON trcstat_ptracer85_del2       =   0.0000000000000000E+00
(PID.TID 0000.0001) %MON trcstat_ptracer86_max        =   8.8153867181972601E-04
(PID.TID 0000.0001) %MON trcstat_ptracer86_min        =   0.0000000000000000E+00
(PID.TID 0000.0001) %MON trcstat_ptracer86_mean       =   2.6284899836225207E-05
(PID.TID 0000.0001) %MON trcstat_ptracer86_sd         =   1.3780694875415345E-04
(PID.TID 0000.0001) %MON trcstat_ptracer86_del2       =   0.0000000000000000E+00
(PID.TID 0000.0001) %MON trcstat_ptracer87_max        =   8.8153867181972601E-04
(PID.TID 0000.0001) %MON trcstat_ptracer87_min        =   0.0000000000000000E+00
(PID.TID 0000.0001) %MON trcstat_ptracer87_mean       =   2.6284899836225207E-05
(PID.TID 0000.0001) %MON trcstat_ptracer87_sd         =   1.3780694875415345E-04
(PID.TID 0000.0001) %MON trcstat_ptracer87_del2       =   0.0000000000000000E+00
(PID.TID 0000.0001) %MON trcstat_ptracer88_max        =   8.8153867181972601E-04
(PID.TID 0000.0001) %MON trcstat_ptracer88_min        =   0.0000000000000000E+00
(PID.TID 0000.0001) %MON trcstat_ptracer88_mean       =   2.6284899836225207E-05
(PID.TID 0000.0001) %MON trcstat_ptracer88_sd         =   1.3780694875415345E-04
(PID.TID 0000.0001) %MON trcstat_ptracer88_del2       =   0.0000000000000000E+00
(PID.TID 0000.0001) %MON trcstat_ptracer89_max        =   8.8153867181972601E-04
(PID.TID 0000.0001) %MON trcstat_ptracer89_min        =   0.0000000000000000E+00
(PID.TID 0000.0001) %MON trcstat_ptracer89_mean       =   2.6284899836225207E-05
(PID.TID 0000.0001) %MON trcstat_ptracer89_sd         =   1.3780694875415345E-04
(PID.TID 0000.0001) %MON trcstat_ptracer89_del2       =   0.0000000000000000E+00
(PID.TID 0000.0001) %MON trcstat_ptracer90_max        =   8.8153867181972601E-04
(PID.TID 0000.0001) %MON trcstat_ptracer90_min        =   0.0000000000000000E+00
(PID.TID 0000.0001) %MON trcstat_ptracer90_mean       =   2.6284899836225207E-05
(PID.TID 0000.0001) %MON trcstat_ptracer90_sd         =   1.3780694875415345E-04
(PID.TID 0000.0001) %MON trcstat_ptracer90_del2       =   0.0000000000000000E+00
(PID.TID 0000.0001) %MON trcstat_ptracer91_max        =   8.8153867181972601E-04
(PID.TID 0000.0001) %MON trcstat_ptracer91_min        =   0.0000000000000000E+00
(PID.TID 0000.0001) %MON trcstat_ptracer91_mean       =   2.6284899836225207E-05
(PID.TID 0000.0001) %MON trcstat_ptracer91_sd         =   1.3780694875415345E-04
(PID.TID 0000.0001) %MON trcstat_ptracer91_del2       =   0.0000000000000000E+00
(PID.TID 0000.0001) %MON trcstat_ptracer92_max        =   8.8153867181972601E-04
(PID.TID 0000.0001) %MON trcstat_ptracer92_min        =   0.0000000000000000E+00
(PID.TID 0000.0001) %MON trcstat_ptracer92_mean       =   2.6284899836225207E-05
(PID.TID 0000.0001) %MON trcstat_ptracer92_sd         =   1.3780694875415345E-04
(PID.TID 0000.0001) %MON trcstat_ptracer92_del2       =   0.0000000000000000E+00
(PID.TID 0000.0001) %MON trcstat_ptracer93_max        =   8.8153867181972601E-04
(PID.TID 0000.0001) %MON trcstat_ptracer93_min        =   0.0000000000000000E+00
(PID.TID 0000.0001) %MON trcstat_ptracer93_mean       =   2.6284899836225207E-05
(PID.TID 0000.0001) %MON trcstat_ptracer93_sd         =   1.3780694875415345E-04
(PID.TID 0000.0001) %MON trcstat_ptracer93_del2       =   0.0000000000000000E+00
(PID.TID 0000.0001) %MON trcstat_ptracer94_max        =   8.8153867181972601E-04
(PID.TID 0000.0001) %MON trcstat_ptracer94_min        =   0.0000000000000000E+00
(PID.TID 0000.0001) %MON trcstat_ptracer94_mean       =   2.6284899836225207E-05
(PID.TID 0000.0001) %MON trcstat_ptracer94_sd         =   1.3780694875415345E-04
(PID.TID 0000.0001) %MON trcstat_ptracer94_del2       =   0.0000000000000000E+00
(PID.TID 0000.0001) %MON trcstat_ptracer95_max        =   8.8153867181972601E-04
(PID.TID 0000.0001) %MON trcstat_ptracer95_min        =   0.0000000000000000E+00
(PID.TID 0000.0001) %MON trcstat_ptracer95_mean       =   2.6284899836225207E-05
(PID.TID 0000.0001) %MON trcstat_ptracer95_sd         =   1.3780694875415345E-04
(PID.TID 0000.0001) %MON trcstat_ptracer95_del2       =   0.0000000000000000E+00
(PID.TID 0000.0001) %MON trcstat_ptracer96_max        =   1.2432850748922419E-07
(PID.TID 0000.0001) %MON trcstat_ptracer96_min        =   0.0000000000000000E+00
(PID.TID 0000.0001) %MON trcstat_ptracer96_mean       =   1.6442399905699555E-08
(PID.TID 0000.0001) %MON trcstat_ptracer96_sd         =   3.0074086738691421E-08
(PID.TID 0000.0001) %MON trcstat_ptracer96_del2       =   0.0000000000000000E+00
(PID.TID 0000.0001) %MON trcstat_ptracer97_max        =   1.2432850748922419E-07
(PID.TID 0000.0001) %MON trcstat_ptracer97_min        =   0.0000000000000000E+00
(PID.TID 0000.0001) %MON trcstat_ptracer97_mean       =   1.6442399905699555E-08
(PID.TID 0000.0001) %MON trcstat_ptracer97_sd         =   3.0074086738691421E-08
(PID.TID 0000.0001) %MON trcstat_ptracer97_del2       =   0.0000000000000000E+00
(PID.TID 0000.0001) %MON time_tsnumber                =                     1
(PID.TID 0000.0001) %MON time_secondsf                =   3.6000000000000000E+03
(PID.TID 0000.0001) %MON dynstat_eta_max              =   0.0000000000000000E+00
(PID.TID 0000.0001) %MON dynstat_eta_min              =   0.0000000000000000E+00
(PID.TID 0000.0001) %MON dynstat_eta_mean             =   0.0000000000000000E+00
(PID.TID 0000.0001) %MON dynstat_eta_sd               =   0.0000000000000000E+00
(PID.TID 0000.0001) %MON dynstat_eta_del2             =   0.0000000000000000E+00
(PID.TID 0000.0001) %MON dynstat_uvel_max             =   0.0000000000000000E+00
(PID.TID 0000.0001) %MON dynstat_uvel_min             =   0.0000000000000000E+00
(PID.TID 0000.0001) %MON dynstat_uvel_mean            =   0.0000000000000000E+00
(PID.TID 0000.0001) %MON dynstat_uvel_sd              =   0.0000000000000000E+00
(PID.TID 0000.0001) %MON dynstat_uvel_del2            =   0.0000000000000000E+00
(PID.TID 0000.0001) %MON dynstat_vvel_max             =   0.0000000000000000E+00
(PID.TID 0000.0001) %MON dynstat_vvel_min             =   0.0000000000000000E+00
(PID.TID 0000.0001) %MON dynstat_vvel_mean            =   0.0000000000000000E+00
(PID.TID 0000.0001) %MON dynstat_vvel_sd              =   0.0000000000000000E+00
(PID.TID 0000.0001) %MON dynstat_vvel_del2            =   0.0000000000000000E+00
(PID.TID 0000.0001) %MON dynstat_wvel_max             =   0.0000000000000000E+00
(PID.TID 0000.0001) %MON dynstat_wvel_min             =   0.0000000000000000E+00
(PID.TID 0000.0001) %MON dynstat_wvel_mean            =   0.0000000000000000E+00
(PID.TID 0000.0001) %MON dynstat_wvel_sd              =   0.0000000000000000E+00
(PID.TID 0000.0001) %MON dynstat_wvel_del2            =   0.0000000000000000E+00
(PID.TID 0000.0001) %MON dynstat_theta_max            =   2.6335817374515290E+01
(PID.TID 0000.0001) %MON dynstat_theta_min            =   2.6737003185747747E+00
(PID.TID 0000.0001) %MON dynstat_theta_mean           =   5.4735670012030040E+00
(PID.TID 0000.0001) %MON dynstat_theta_sd             =   5.1970860626953339E+00
(PID.TID 0000.0001) %MON dynstat_theta_del2           =   0.0000000000000000E+00
(PID.TID 0000.0001) %MON dynstat_salt_max             =   3.5000000000000000E+01
(PID.TID 0000.0001) %MON dynstat_salt_min             =   3.5000000000000000E+01
(PID.TID 0000.0001) %MON dynstat_salt_mean            =   3.5000000000000007E+01
(PID.TID 0000.0001) %MON dynstat_salt_sd              =   7.1054273576010019E-15
(PID.TID 0000.0001) %MON dynstat_salt_del2            =   0.0000000000000000E+00
(PID.TID 0000.0001) %MON dynstat_sst_max              =   2.6335817374515290E+01
(PID.TID 0000.0001) %MON dynstat_sst_min              =   2.6335817374515290E+01
(PID.TID 0000.0001) %MON dynstat_sst_mean             =   2.6335817374515290E+01
(PID.TID 0000.0001) %MON dynstat_sst_sd               =   0.0000000000000000E+00
(PID.TID 0000.0001) %MON dynstat_sst_del2             =   0.0000000000000000E+00
(PID.TID 0000.0001) %MON dynstat_sss_max              =   3.5000000000000000E+01
(PID.TID 0000.0001) %MON dynstat_sss_min              =   3.5000000000000000E+01
(PID.TID 0000.0001) %MON dynstat_sss_mean             =   3.5000000000000000E+01
(PID.TID 0000.0001) %MON dynstat_sss_sd               =   0.0000000000000000E+00
(PID.TID 0000.0001) %MON dynstat_sss_del2             =   0.0000000000000000E+00
(PID.TID 0000.0001) %MON forcing_qnet_max             =   0.0000000000000000E+00
(PID.TID 0000.0001) %MON forcing_qnet_min             =   0.0000000000000000E+00
(PID.TID 0000.0001) %MON forcing_qnet_mean            =   0.0000000000000000E+00
(PID.TID 0000.0001) %MON forcing_qnet_sd              =   0.0000000000000000E+00
(PID.TID 0000.0001) %MON forcing_qnet_del2            =   0.0000000000000000E+00
(PID.TID 0000.0001) %MON forcing_qsw_max              =   0.0000000000000000E+00
(PID.TID 0000.0001) %MON forcing_qsw_min              =   0.0000000000000000E+00
(PID.TID 0000.0001) %MON forcing_qsw_mean             =   0.0000000000000000E+00
(PID.TID 0000.0001) %MON forcing_qsw_sd               =   0.0000000000000000E+00
(PID.TID 0000.0001) %MON forcing_qsw_del2             =   0.0000000000000000E+00
(PID.TID 0000.0001) %MON forcing_empmr_max            =   0.0000000000000000E+00
(PID.TID 0000.0001) %MON forcing_empmr_min            =   0.0000000000000000E+00
(PID.TID 0000.0001) %MON forcing_empmr_mean           =   0.0000000000000000E+00
(PID.TID 0000.0001) %MON forcing_empmr_sd             =   0.0000000000000000E+00
(PID.TID 0000.0001) %MON forcing_empmr_del2           =   0.0000000000000000E+00
(PID.TID 0000.0001) %MON forcing_fu_max               =   0.0000000000000000E+00
(PID.TID 0000.0001) %MON forcing_fu_min               =   0.0000000000000000E+00
(PID.TID 0000.0001) %MON forcing_fu_mean              =   0.0000000000000000E+00
(PID.TID 0000.0001) %MON forcing_fu_sd                =   0.0000000000000000E+00
(PID.TID 0000.0001) %MON forcing_fu_del2              =   0.0000000000000000E+00
(PID.TID 0000.0001) %MON forcing_fv_max               =   0.0000000000000000E+00
(PID.TID 0000.0001) %MON forcing_fv_min               =   0.0000000000000000E+00
(PID.TID 0000.0001) %MON forcing_fv_mean              =   0.0000000000000000E+00
(PID.TID 0000.0001) %MON forcing_fv_sd                =   0.0000000000000000E+00
(PID.TID 0000.0001) %MON forcing_fv_del2              =   0.0000000000000000E+00
(PID.TID 0000.0001) %MON advcfl_uvel_max              =   0.0000000000000000E+00
(PID.TID 0000.0001) %MON advcfl_vvel_max              =   0.0000000000000000E+00
(PID.TID 0000.0001) %MON advcfl_wvel_max              =   0.0000000000000000E+00
(PID.TID 0000.0001) %MON advcfl_W_hf_max              =   0.0000000000000000E+00
(PID.TID 0000.0001) %MON pe_b_mean                    =   0.0000000000000000E+00
(PID.TID 0000.0001) %MON ke_max                       =   0.0000000000000000E+00
(PID.TID 0000.0001) %MON ke_mean                      =   0.0000000000000000E+00
(PID.TID 0000.0001) %MON ke_vol                       =   4.1199767883484609E+13
(PID.TID 0000.0001) %MON vort_r_min                   =   0.0000000000000000E+00
(PID.TID 0000.0001) %MON vort_r_max                   =   0.0000000000000000E+00
(PID.TID 0000.0001) %MON vort_a_mean                  =  -4.5067801836624727E-05
(PID.TID 0000.0001) %MON vort_a_sd                    =  -4.1359030627651384E-25
(PID.TID 0000.0001) %MON vort_p_mean                  =  -4.5067801836624727E-05
(PID.TID 0000.0001) %MON vort_p_sd                    =   0.0000000000000000E+00
(PID.TID 0000.0001) %MON surfExpan_theta_mean         =   0.0000000000000000E+00
(PID.TID 0000.0001) %MON surfExpan_salt_mean          =   0.0000000000000000E+00
(PID.TID 0000.0001) %MON trcstat_ptracer01_max        =                      NAN
(PID.TID 0000.0001) %MON trcstat_ptracer01_min        =                      NAN
(PID.TID 0000.0001) %MON trcstat_ptracer01_mean       =                      NAN
(PID.TID 0000.0001) %MON trcstat_ptracer01_sd         =                      NAN
(PID.TID 0000.0001) %MON trcstat_ptracer01_del2       =                      NAN
(PID.TID 0000.0001) %MON trcstat_ptracer02_max        =   2.5607523765140916E-02
(PID.TID 0000.0001) %MON trcstat_ptracer02_min        =   1.8763301829745543E-07
(PID.TID 0000.0001) %MON trcstat_ptracer02_mean       =   6.0398400177298541E-04
(PID.TID 0000.0001) %MON trcstat_ptracer02_sd         =   3.2466290905443329E-03
(PID.TID 0000.0001) %MON trcstat_ptracer02_del2       =   0.0000000000000000E+00
(PID.TID 0000.0001) %MON trcstat_ptracer03_max        =   1.8317765616309871E-02
(PID.TID 0000.0001) %MON trcstat_ptracer03_min        =   3.8791489719393813E-06
(PID.TID 0000.0001) %MON trcstat_ptracer03_mean       =   6.0483536019865516E-04
(PID.TID 0000.0001) %MON trcstat_ptracer03_sd         =   1.9443679832123826E-03
(PID.TID 0000.0001) %MON trcstat_ptracer03_del2       =   0.0000000000000000E+00
(PID.TID 0000.0001) %MON trcstat_ptracer04_max        =   3.3903497946886560E+01
(PID.TID 0000.0001) %MON trcstat_ptracer04_min        =   4.6386158429468152E-02
(PID.TID 0000.0001) %MON trcstat_ptracer04_mean       =   2.3502391113421247E+01
(PID.TID 0000.0001) %MON trcstat_ptracer04_sd         =   7.8161988759269709E+00
(PID.TID 0000.0001) %MON trcstat_ptracer04_del2       =   0.0000000000000000E+00
(PID.TID 0000.0001) %MON trcstat_ptracer05_max        =   2.2436999316291510E+00
(PID.TID 0000.0001) %MON trcstat_ptracer05_min        =   2.1025137302554439E-01
(PID.TID 0000.0001) %MON trcstat_ptracer05_mean       =   1.5821338616501415E+00
(PID.TID 0000.0001) %MON trcstat_ptracer05_sd         =   4.6735033063638848E-01
(PID.TID 0000.0001) %MON trcstat_ptracer05_del2       =   0.0000000000000000E+00
(PID.TID 0000.0001) %MON trcstat_ptracer06_max        =   3.9387401347897352E+01
(PID.TID 0000.0001) %MON trcstat_ptracer06_min        =   1.2247998759695715E+00
(PID.TID 0000.0001) %MON trcstat_ptracer06_mean       =   2.9621889344557239E+01
(PID.TID 0000.0001) %MON trcstat_ptracer06_sd         =   1.1270586934337494E+01
(PID.TID 0000.0001) %MON trcstat_ptracer06_del2       =   0.0000000000000000E+00
(PID.TID 0000.0001) %MON trcstat_ptracer07_max        =   1.3001304397678077E-03
(PID.TID 0000.0001) %MON trcstat_ptracer07_min        =   1.2999853935924228E-03
(PID.TID 0000.0001) %MON trcstat_ptracer07_mean       =   1.2999859208514702E-03
(PID.TID 0000.0001) %MON trcstat_ptracer07_sd         =   7.7457744225572579E-09
(PID.TID 0000.0001) %MON trcstat_ptracer07_del2       =   0.0000000000000000E+00
(PID.TID 0000.0001) %MON trcstat_ptracer08_max        =   6.1353849253160209E-01
(PID.TID 0000.0001) %MON trcstat_ptracer08_min        =   2.1626253518310592E-33
(PID.TID 0000.0001) %MON trcstat_ptracer08_mean       =   2.5763050996677091E-02
(PID.TID 0000.0001) %MON trcstat_ptracer08_sd         =   1.1091171136621650E-01
(PID.TID 0000.0001) %MON trcstat_ptracer08_del2       =   0.0000000000000000E+00
(PID.TID 0000.0001) %MON trcstat_ptracer09_max        =   8.1805132337546937E-02
(PID.TID 0000.0001) %MON trcstat_ptracer09_min        =   2.8835004691080788E-34
(PID.TID 0000.0001) %MON trcstat_ptracer09_mean       =   3.4350734662236121E-03
(PID.TID 0000.0001) %MON trcstat_ptracer09_sd         =   1.4788228182162199E-02
(PID.TID 0000.0001) %MON trcstat_ptracer09_del2       =   0.0000000000000000E+00
(PID.TID 0000.0001) %MON trcstat_ptracer10_max        =   5.1128207710966836E-03
(PID.TID 0000.0001) %MON trcstat_ptracer10_min        =   1.8021877931925492E-35
(PID.TID 0000.0001) %MON trcstat_ptracer10_mean       =   2.1469209163897576E-04
(PID.TID 0000.0001) %MON trcstat_ptracer10_sd         =   9.2426426138513744E-04
(PID.TID 0000.0001) %MON trcstat_ptracer10_del2       =   0.0000000000000000E+00
(PID.TID 0000.0001) %MON trcstat_ptracer11_max        =   5.1128204113850163E-06
(PID.TID 0000.0001) %MON trcstat_ptracer11_min        =   1.8021850847722475E-38
(PID.TID 0000.0001) %MON trcstat_ptracer11_mean       =   2.1469209194535130E-07
(PID.TID 0000.0001) %MON trcstat_ptracer11_sd         =   9.2426426104337406E-07
(PID.TID 0000.0001) %MON trcstat_ptracer11_del2       =   0.0000000000000000E+00
(PID.TID 0000.0001) %MON trcstat_ptracer12_max        =   3.2667984171676205E-02
(PID.TID 0000.0001) %MON trcstat_ptracer12_min        =   1.4086367136037866E-04
(PID.TID 0000.0001) %MON trcstat_ptracer12_mean       =   9.4669168203263647E-03
(PID.TID 0000.0001) %MON trcstat_ptracer12_sd         =   1.1587701682838639E-02
(PID.TID 0000.0001) %MON trcstat_ptracer12_del2       =   0.0000000000000000E+00
(PID.TID 0000.0001) %MON trcstat_ptracer13_max        =   4.3557312228901610E-03
(PID.TID 0000.0001) %MON trcstat_ptracer13_min        =   1.8781822848050488E-05
(PID.TID 0000.0001) %MON trcstat_ptracer13_mean       =   1.2622555760435153E-03
(PID.TID 0000.0001) %MON trcstat_ptracer13_sd         =   1.5450268910451519E-03
(PID.TID 0000.0001) %MON trcstat_ptracer13_del2       =   0.0000000000000000E+00
(PID.TID 0000.0001) %MON trcstat_ptracer14_max        =   2.7223320143063506E-04
(PID.TID 0000.0001) %MON trcstat_ptracer14_min        =   1.1738639280031555E-06
(PID.TID 0000.0001) %MON trcstat_ptracer14_mean       =   7.8890973502719706E-05
(PID.TID 0000.0001) %MON trcstat_ptracer14_sd         =   9.6564180690321991E-05
(PID.TID 0000.0001) %MON trcstat_ptracer14_del2       =   0.0000000000000000E+00
(PID.TID 0000.0001) %MON trcstat_ptracer15_max        =   1.6249560323348945E-02
(PID.TID 0000.0001) %MON trcstat_ptracer15_min        =   1.1386925448277799E-03
(PID.TID 0000.0001) %MON trcstat_ptracer15_mean       =   5.4889969711878596E-03
(PID.TID 0000.0001) %MON trcstat_ptracer15_sd         =   5.1715475242978997E-03
(PID.TID 0000.0001) %MON trcstat_ptracer15_del2       =   0.0000000000000000E+00
(PID.TID 0000.0001) %MON trcstat_ptracer16_max        =   2.7223321719345594E-07
(PID.TID 0000.0001) %MON trcstat_ptracer16_min        =   1.1738637993409111E-09
(PID.TID 0000.0001) %MON trcstat_ptracer16_mean       =   7.8890974028900764E-08
(PID.TID 0000.0001) %MON trcstat_ptracer16_sd         =   9.6564182747788839E-08
(PID.TID 0000.0001) %MON trcstat_ptracer16_del2       =   0.0000000000000000E+00
(PID.TID 0000.0001) %MON trcstat_ptracer17_max        =                      NAN
(PID.TID 0000.0001) %MON trcstat_ptracer17_min        =                      NAN
(PID.TID 0000.0001) %MON trcstat_ptracer17_mean       =                      NAN
(PID.TID 0000.0001) %MON trcstat_ptracer17_sd         =                      NAN
(PID.TID 0000.0001) %MON trcstat_ptracer17_del2       =                      NAN
(PID.TID 0000.0001) %MON trcstat_ptracer18_max        =   8.7921394589959097E-04
(PID.TID 0000.0001) %MON trcstat_ptracer18_min        =   1.1455106270729970E-34
(PID.TID 0000.0001) %MON trcstat_ptracer18_mean       =   2.6204141480186008E-05
(PID.TID 0000.0001) %MON trcstat_ptracer18_sd         =   1.3737725347540266E-04
(PID.TID 0000.0001) %MON trcstat_ptracer18_del2       =   0.0000000000000000E+00
(PID.TID 0000.0001) %MON trcstat_ptracer19_max        =   8.8332220930795397E-04
(PID.TID 0000.0001) %MON trcstat_ptracer19_min        =   1.1455106270729970E-34
(PID.TID 0000.0001) %MON trcstat_ptracer19_mean       =   2.6311300278470599E-05
(PID.TID 0000.0001) %MON trcstat_ptracer19_sd         =   1.3802977342715789E-04
(PID.TID 0000.0001) %MON trcstat_ptracer19_del2       =   0.0000000000000000E+00
(PID.TID 0000.0001) %MON trcstat_ptracer20_max        =   8.8828532287042890E-04
(PID.TID 0000.0001) %MON trcstat_ptracer20_min        =   1.1455106270729970E-34
(PID.TID 0000.0001) %MON trcstat_ptracer20_mean       =   2.6395020883073439E-05
(PID.TID 0000.0001) %MON trcstat_ptracer20_sd         =   1.3851709044420933E-04
(PID.TID 0000.0001) %MON trcstat_ptracer20_del2       =   0.0000000000000000E+00
(PID.TID 0000.0001) %MON trcstat_ptracer21_max        =   8.7784040723671403E-04
(PID.TID 0000.0001) %MON trcstat_ptracer21_min        =   1.1455106270729970E-34
(PID.TID 0000.0001) %MON trcstat_ptracer21_mean       =   2.6175379415809042E-05
(PID.TID 0000.0001) %MON trcstat_ptracer21_sd         =   1.3721453424018709E-04
(PID.TID 0000.0001) %MON trcstat_ptracer21_del2       =   0.0000000000000000E+00
(PID.TID 0000.0001) %MON trcstat_ptracer22_max        =   8.7784040716868588E-04
(PID.TID 0000.0001) %MON trcstat_ptracer22_min        =   1.1455106270729970E-34
(PID.TID 0000.0001) %MON trcstat_ptracer22_mean       =   2.6175379413907619E-05
(PID.TID 0000.0001) %MON trcstat_ptracer22_sd         =   1.3721453422994872E-04
(PID.TID 0000.0001) %MON trcstat_ptracer22_del2       =   0.0000000000000000E+00
(PID.TID 0000.0001) %MON trcstat_ptracer23_max        =   8.8512495927507945E-04
(PID.TID 0000.0001) %MON trcstat_ptracer23_min        =   1.1455106270729970E-34
(PID.TID 0000.0001) %MON trcstat_ptracer23_mean       =   2.6338321709188929E-05
(PID.TID 0000.0001) %MON trcstat_ptracer23_sd         =   1.3819174069983501E-04
(PID.TID 0000.0001) %MON trcstat_ptracer23_del2       =   0.0000000000000000E+00
(PID.TID 0000.0001) %MON trcstat_ptracer24_max        =   8.7785894917774500E-04
(PID.TID 0000.0001) %MON trcstat_ptracer24_min        =   3.9452493772007623E-37
(PID.TID 0000.0001) %MON trcstat_ptracer24_mean       =   2.6175379413905912E-05
(PID.TID 0000.0001) %MON trcstat_ptracer24_sd         =   1.3723205447389652E-04
(PID.TID 0000.0001) %MON trcstat_ptracer24_del2       =   0.0000000000000000E+00
(PID.TID 0000.0001) %MON trcstat_ptracer25_max        =   8.7785894917781786E-04
(PID.TID 0000.0001) %MON trcstat_ptracer25_min        =   3.9452493772007623E-37
(PID.TID 0000.0001) %MON trcstat_ptracer25_mean       =   2.6175379413906786E-05
(PID.TID 0000.0001) %MON trcstat_ptracer25_sd         =   1.3723205447390105E-04
(PID.TID 0000.0001) %MON trcstat_ptracer25_del2       =   0.0000000000000000E+00
(PID.TID 0000.0001) %MON trcstat_ptracer26_max        =   8.8126911638871676E-04
(PID.TID 0000.0001) %MON trcstat_ptracer26_min        =   3.9452493772007623E-37
(PID.TID 0000.0001) %MON trcstat_ptracer26_mean       =   2.6224179253001746E-05
(PID.TID 0000.0001) %MON trcstat_ptracer26_sd         =   1.3752817141631313E-04
(PID.TID 0000.0001) %MON trcstat_ptracer26_del2       =   0.0000000000000000E+00
(PID.TID 0000.0001) %MON trcstat_ptracer27_max        =   8.7784040716879755E-04
(PID.TID 0000.0001) %MON trcstat_ptracer27_min        =   1.1455106270729970E-34
(PID.TID 0000.0001) %MON trcstat_ptracer27_mean       =   2.6175379413909107E-05
(PID.TID 0000.0001) %MON trcstat_ptracer27_sd         =   1.3721453422995707E-04
(PID.TID 0000.0001) %MON trcstat_ptracer27_del2       =   0.0000000000000000E+00
(PID.TID 0000.0001) %MON trcstat_ptracer28_max        =   8.8502934790313042E-04
(PID.TID 0000.0001) %MON trcstat_ptracer28_min        =   1.1455106270729970E-34
(PID.TID 0000.0001) %MON trcstat_ptracer28_mean       =   2.6324406248865447E-05
(PID.TID 0000.0001) %MON trcstat_ptracer28_sd         =   1.3809110003422154E-04
(PID.TID 0000.0001) %MON trcstat_ptracer28_del2       =   0.0000000000000000E+00
(PID.TID 0000.0001) %MON trcstat_ptracer29_max        =   8.8216550151258772E-04
(PID.TID 0000.0001) %MON trcstat_ptracer29_min        =   3.9452493772007623E-37
(PID.TID 0000.0001) %MON trcstat_ptracer29_mean       =   2.6283399528112951E-05
(PID.TID 0000.0001) %MON trcstat_ptracer29_sd         =   1.3781818805017233E-04
(PID.TID 0000.0001) %MON trcstat_ptracer29_del2       =   0.0000000000000000E+00
(PID.TID 0000.0001) %MON trcstat_ptracer30_max        =   8.7784040716875678E-04
(PID.TID 0000.0001) %MON trcstat_ptracer30_min        =   1.1455106270729970E-34
(PID.TID 0000.0001) %MON trcstat_ptracer30_mean       =   2.6175398973609856E-05
(PID.TID 0000.0001) %MON trcstat_ptracer30_sd         =   1.3721454222644287E-04
(PID.TID 0000.0001) %MON trcstat_ptracer30_del2       =   0.0000000000000000E+00
(PID.TID 0000.0001) %MON trcstat_ptracer31_max        =   8.7785894917786936E-04
(PID.TID 0000.0001) %MON trcstat_ptracer31_min        =   3.9452493772007623E-37
(PID.TID 0000.0001) %MON trcstat_ptracer31_mean       =   2.6175379413907660E-05
(PID.TID 0000.0001) %MON trcstat_ptracer31_sd         =   1.3723205447390677E-04
(PID.TID 0000.0001) %MON trcstat_ptracer31_del2       =   0.0000000000000000E+00
(PID.TID 0000.0001) %MON trcstat_ptracer32_max        =   8.8643606804365447E-04
(PID.TID 0000.0001) %MON trcstat_ptracer32_min        =   1.1455106270729970E-34
(PID.TID 0000.0001) %MON trcstat_ptracer32_mean       =   2.6362759056668587E-05
(PID.TID 0000.0001) %MON trcstat_ptracer32_sd         =   1.3832599242664319E-04
(PID.TID 0000.0001) %MON trcstat_ptracer32_del2       =   0.0000000000000000E+00
(PID.TID 0000.0001) %MON trcstat_ptracer33_max        =   8.7784040716884948E-04
(PID.TID 0000.0001) %MON trcstat_ptracer33_min        =   1.1455106270729970E-34
(PID.TID 0000.0001) %MON trcstat_ptracer33_mean       =   2.6175379413910191E-05
(PID.TID 0000.0001) %MON trcstat_ptracer33_sd         =   1.3721453422996347E-04
(PID.TID 0000.0001) %MON trcstat_ptracer33_del2       =   0.0000000000000000E+00
(PID.TID 0000.0001) %MON trcstat_ptracer34_max        =   8.7785894917779552E-04
(PID.TID 0000.0001) %MON trcstat_ptracer34_min        =   3.9452493772007623E-37
(PID.TID 0000.0001) %MON trcstat_ptracer34_mean       =   2.6175379413906488E-05
(PID.TID 0000.0001) %MON trcstat_ptracer34_sd         =   1.3723205447389983E-04
(PID.TID 0000.0001) %MON trcstat_ptracer34_del2       =   0.0000000000000000E+00
(PID.TID 0000.0001) %MON trcstat_ptracer35_max        =   8.8676706887048462E-04
(PID.TID 0000.0001) %MON trcstat_ptracer35_min        =   1.1455106270729970E-34
(PID.TID 0000.0001) %MON trcstat_ptracer35_mean       =   2.6357758417997504E-05
(PID.TID 0000.0001) %MON trcstat_ptracer35_sd         =   1.3828964583669049E-04
(PID.TID 0000.0001) %MON trcstat_ptracer35_del2       =   0.0000000000000000E+00
(PID.TID 0000.0001) %MON trcstat_ptracer36_max        =   8.8653329221858744E-04
(PID.TID 0000.0001) %MON trcstat_ptracer36_min        =   1.1455106270729970E-34
(PID.TID 0000.0001) %MON trcstat_ptracer36_mean       =   2.6353331314670801E-05
(PID.TID 0000.0001) %MON trcstat_ptracer36_sd         =   1.3827341575929069E-04
(PID.TID 0000.0001) %MON trcstat_ptracer36_del2       =   0.0000000000000000E+00
(PID.TID 0000.0001) %MON trcstat_ptracer37_max        =   8.8274795293850374E-04
(PID.TID 0000.0001) %MON trcstat_ptracer37_min        =   3.9452493772007623E-37
(PID.TID 0000.0001) %MON trcstat_ptracer37_mean       =   2.6268008083011091E-05
(PID.TID 0000.0001) %MON trcstat_ptracer37_sd         =   1.3776131601657673E-04
(PID.TID 0000.0001) %MON trcstat_ptracer37_del2       =   0.0000000000000000E+00
(PID.TID 0000.0001) %MON trcstat_ptracer38_max        =   8.7784040723680457E-04
(PID.TID 0000.0001) %MON trcstat_ptracer38_min        =   1.1455106270729970E-34
(PID.TID 0000.0001) %MON trcstat_ptracer38_mean       =   2.6175379415809900E-05
(PID.TID 0000.0001) %MON trcstat_ptracer38_sd         =   1.3721453424019191E-04
(PID.TID 0000.0001) %MON trcstat_ptracer38_del2       =   0.0000000000000000E+00
(PID.TID 0000.0001) %MON trcstat_ptracer39_max        =   8.7785894917774283E-04
(PID.TID 0000.0001) %MON trcstat_ptracer39_min        =   3.9452493772007623E-37
(PID.TID 0000.0001) %MON trcstat_ptracer39_mean       =   2.6175379413905783E-05
(PID.TID 0000.0001) %MON trcstat_ptracer39_sd         =   1.3723205447389595E-04
(PID.TID 0000.0001) %MON trcstat_ptracer39_del2       =   0.0000000000000000E+00
(PID.TID 0000.0001) %MON trcstat_ptracer40_max        =   8.8061803475196281E-04
(PID.TID 0000.0001) %MON trcstat_ptracer40_min        =   1.1455106270729970E-34
(PID.TID 0000.0001) %MON trcstat_ptracer40_mean       =   2.6240444490015754E-05
(PID.TID 0000.0001) %MON trcstat_ptracer40_sd         =   1.3759811251261037E-04
(PID.TID 0000.0001) %MON trcstat_ptracer40_del2       =   0.0000000000000000E+00
(PID.TID 0000.0001) %MON trcstat_ptracer41_max        =   8.7785894917776343E-04
(PID.TID 0000.0001) %MON trcstat_ptracer41_min        =   3.9452493772007623E-37
(PID.TID 0000.0001) %MON trcstat_ptracer41_mean       =   2.6175379413906681E-05
(PID.TID 0000.0001) %MON trcstat_ptracer41_sd         =   1.3723205447389999E-04
(PID.TID 0000.0001) %MON trcstat_ptracer41_del2       =   0.0000000000000000E+00
(PID.TID 0000.0001) %MON trcstat_ptracer42_max        =   8.7784040716862549E-04
(PID.TID 0000.0001) %MON trcstat_ptracer42_min        =   1.1455106270729970E-34
(PID.TID 0000.0001) %MON trcstat_ptracer42_mean       =   2.6175379413906051E-05
(PID.TID 0000.0001) %MON trcstat_ptracer42_sd         =   1.3721453422993942E-04
(PID.TID 0000.0001) %MON trcstat_ptracer42_del2       =   0.0000000000000000E+00
(PID.TID 0000.0001) %MON trcstat_ptracer43_max        =   8.7784040723688902E-04
(PID.TID 0000.0001) %MON trcstat_ptracer43_min        =   1.1455106270729970E-34
(PID.TID 0000.0001) %MON trcstat_ptracer43_mean       =   2.6175608524430579E-05
(PID.TID 0000.0001) %MON trcstat_ptracer43_sd         =   1.3721478343292832E-04
(PID.TID 0000.0001) %MON trcstat_ptracer43_del2       =   0.0000000000000000E+00
(PID.TID 0000.0001) %MON trcstat_ptracer44_max        =   8.8631695743035489E-04
(PID.TID 0000.0001) %MON trcstat_ptracer44_min        =   1.1455106270729970E-34
(PID.TID 0000.0001) %MON trcstat_ptracer44_mean       =   2.6351270972772638E-05
(PID.TID 0000.0001) %MON trcstat_ptracer44_sd         =   1.3824830799613692E-04
(PID.TID 0000.0001) %MON trcstat_ptracer44_del2       =   0.0000000000000000E+00
(PID.TID 0000.0001) %MON trcstat_ptracer45_max        =   8.8663156123367892E-04
(PID.TID 0000.0001) %MON trcstat_ptracer45_min        =   1.1455106270729970E-34
(PID.TID 0000.0001) %MON trcstat_ptracer45_mean       =   2.6358391089439476E-05
(PID.TID 0000.0001) %MON trcstat_ptracer45_sd         =   1.3830648480871971E-04
(PID.TID 0000.0001) %MON trcstat_ptracer45_del2       =   0.0000000000000000E+00
(PID.TID 0000.0001) %MON trcstat_ptracer46_max        =   8.8633906594772166E-04
(PID.TID 0000.0001) %MON trcstat_ptracer46_min        =   3.9452493772007623E-37
(PID.TID 0000.0001) %MON trcstat_ptracer46_mean       =   2.6322934267238568E-05
(PID.TID 0000.0001) %MON trcstat_ptracer46_sd         =   1.3808047717964972E-04
(PID.TID 0000.0001) %MON trcstat_ptracer46_del2       =   0.0000000000000000E+00
(PID.TID 0000.0001) %MON trcstat_ptracer47_max        =   8.7785894917773318E-04
(PID.TID 0000.0001) %MON trcstat_ptracer47_min        =   3.9452493772007623E-37
(PID.TID 0000.0001) %MON trcstat_ptracer47_mean       =   2.6175379413906518E-05
(PID.TID 0000.0001) %MON trcstat_ptracer47_sd         =   1.3723205447389836E-04
(PID.TID 0000.0001) %MON trcstat_ptracer47_del2       =   0.0000000000000000E+00
(PID.TID 0000.0001) %MON trcstat_ptracer48_max        =   8.7784040716872740E-04
(PID.TID 0000.0001) %MON trcstat_ptracer48_min        =   1.1455106270729970E-34
(PID.TID 0000.0001) %MON trcstat_ptracer48_mean       =   2.6175379413907880E-05
(PID.TID 0000.0001) %MON trcstat_ptracer48_sd         =   1.3721453422995013E-04
(PID.TID 0000.0001) %MON trcstat_ptracer48_del2       =   0.0000000000000000E+00
(PID.TID 0000.0001) %MON trcstat_ptracer49_max        =   8.8450816845787579E-04
(PID.TID 0000.0001) %MON trcstat_ptracer49_min        =   3.9452493772007623E-37
(PID.TID 0000.0001) %MON trcstat_ptracer49_mean       =   2.6301136342132203E-05
(PID.TID 0000.0001) %MON trcstat_ptracer49_sd         =   1.3795110671909399E-04
(PID.TID 0000.0001) %MON trcstat_ptracer49_del2       =   0.0000000000000000E+00
(PID.TID 0000.0001) %MON trcstat_ptracer50_max        =   8.8379485661167832E-04
(PID.TID 0000.0001) %MON trcstat_ptracer50_min        =   1.1455106270729970E-34
(PID.TID 0000.0001) %MON trcstat_ptracer50_mean       =   2.6300524783885281E-05
(PID.TID 0000.0001) %MON trcstat_ptracer50_sd         =   1.3793185873286687E-04
(PID.TID 0000.0001) %MON trcstat_ptracer50_del2       =   0.0000000000000000E+00
(PID.TID 0000.0001) %MON trcstat_ptracer51_max        =   8.8342691379164281E-04
(PID.TID 0000.0001) %MON trcstat_ptracer51_min        =   3.9452493772007623E-37
[...]
(PID.TID 0000.0001) %MON trcstat_ptracer48_del2       =   0.0000000000000000E+00
(PID.TID 0000.0001) %MON trcstat_ptracer49_max        =   8.9351458296740253E-04
(PID.TID 0000.0001) %MON trcstat_ptracer49_min        =   1.3739850072285331E-35
(PID.TID 0000.0001) %MON trcstat_ptracer49_mean       =   2.6351973844393820E-05
(PID.TID 0000.0001) %MON trcstat_ptracer49_sd         =   1.3840135766820418E-04
(PID.TID 0000.0001) %MON trcstat_ptracer49_del2       =   0.0000000000000000E+00
(PID.TID 0000.0001) %MON trcstat_ptracer50_max        =   8.9060067833218520E-04
(PID.TID 0000.0001) %MON trcstat_ptracer50_min        =   1.6992725818009339E-27
(PID.TID 0000.0001) %MON trcstat_ptracer50_mean       =   2.6348451684169341E-05
(PID.TID 0000.0001) %MON trcstat_ptracer50_sd         =   1.3831485450702005E-04
(PID.TID 0000.0001) %MON trcstat_ptracer50_del2       =   0.0000000000000000E+00
(PID.TID 0000.0001) %MON trcstat_ptracer51_max        =   8.8914642385990925E-04
(PID.TID 0000.0001) %MON trcstat_ptracer51_min        =   1.3739850072285331E-35
(PID.TID 0000.0001) %MON trcstat_ptracer51_mean       =   2.6263801130512087E-05
(PID.TID 0000.0001) %MON trcstat_ptracer51_sd         =   1.3788197140863703E-04
(PID.TID 0000.0001) %MON trcstat_ptracer51_del2       =   0.0000000000000000E+00
(PID.TID 0000.0001) %MON trcstat_ptracer52_max        =   8.6691171288740671E-04
(PID.TID 0000.0001) %MON trcstat_ptracer52_min        =   1.3739850072285331E-35
(PID.TID 0000.0001) %MON trcstat_ptracer52_mean       =   2.5849548560052688E-05
(PID.TID 0000.0001) %MON trcstat_ptracer52_sd         =   1.3552172203849463E-04
(PID.TID 0000.0001) %MON trcstat_ptracer52_del2       =   0.0000000000000000E+00
(PID.TID 0000.0001) %MON trcstat_ptracer53_max        =   8.8883376073800656E-04
(PID.TID 0000.0001) %MON trcstat_ptracer53_min        =   1.3739850072285331E-35
(PID.TID 0000.0001) %MON trcstat_ptracer53_mean       =   2.6256437476780564E-05
(PID.TID 0000.0001) %MON trcstat_ptracer53_sd         =   1.3785860917639751E-04
(PID.TID 0000.0001) %MON trcstat_ptracer53_del2       =   0.0000000000000000E+00
(PID.TID 0000.0001) %MON trcstat_ptracer54_max        =   8.6683865037610820E-04
(PID.TID 0000.0001) %MON trcstat_ptracer54_min        =   1.6992725818008901E-27
(PID.TID 0000.0001) %MON trcstat_ptracer54_mean       =   2.5849548560060639E-05
(PID.TID 0000.0001) %MON trcstat_ptracer54_sd         =   1.3545288043720469E-04
(PID.TID 0000.0001) %MON trcstat_ptracer54_del2       =   0.0000000000000000E+00
(PID.TID 0000.0001) %MON trcstat_ptracer55_max        =   8.6691171288765304E-04
(PID.TID 0000.0001) %MON trcstat_ptracer55_min        =   1.3739850072285331E-35
(PID.TID 0000.0001) %MON trcstat_ptracer55_mean       =   2.5849548560060040E-05
(PID.TID 0000.0001) %MON trcstat_ptracer55_sd         =   1.3552172203853188E-04
(PID.TID 0000.0001) %MON trcstat_ptracer55_del2       =   0.0000000000000000E+00
(PID.TID 0000.0001) %MON trcstat_ptracer56_max        =   8.6691171288791791E-04
(PID.TID 0000.0001) %MON trcstat_ptracer56_min        =   1.3739850072285331E-35
(PID.TID 0000.0001) %MON trcstat_ptracer56_mean       =   2.5849548560061896E-05
(PID.TID 0000.0001) %MON trcstat_ptracer56_sd         =   1.3552172203854613E-04
(PID.TID 0000.0001) %MON trcstat_ptracer56_del2       =   0.0000000000000000E+00
(PID.TID 0000.0001) %MON trcstat_ptracer57_max        =   8.6691171288788603E-04
(PID.TID 0000.0001) %MON trcstat_ptracer57_min        =   1.3739850072285331E-35
(PID.TID 0000.0001) %MON trcstat_ptracer57_mean       =   2.5849548560058718E-05
(PID.TID 0000.0001) %MON trcstat_ptracer57_sd         =   1.3552172203853402E-04
(PID.TID 0000.0001) %MON trcstat_ptracer57_del2       =   0.0000000000000000E+00
(PID.TID 0000.0001) %MON trcstat_ptracer58_max        =   8.6691171288818050E-04
(PID.TID 0000.0001) %MON trcstat_ptracer58_min        =   1.3739850072285331E-35
(PID.TID 0000.0001) %MON trcstat_ptracer58_mean       =   2.5849548560068900E-05
(PID.TID 0000.0001) %MON trcstat_ptracer58_sd         =   1.3552172203858365E-04
(PID.TID 0000.0001) %MON trcstat_ptracer58_del2       =   0.0000000000000000E+00
(PID.TID 0000.0001) %MON trcstat_ptracer59_max        =   8.6691197765580944E-04
(PID.TID 0000.0001) %MON trcstat_ptracer59_min        =   1.3739850072285331E-35
(PID.TID 0000.0001) %MON trcstat_ptracer59_mean       =   2.5915466270446232E-05
(PID.TID 0000.0001) %MON trcstat_ptracer59_sd         =   1.3580823859444857E-04
(PID.TID 0000.0001) %MON trcstat_ptracer59_del2       =   0.0000000000000000E+00
(PID.TID 0000.0001) %MON trcstat_ptracer60_max        =   8.6691171288773186E-04
(PID.TID 0000.0001) %MON trcstat_ptracer60_min        =   1.3739850072285331E-35
(PID.TID 0000.0001) %MON trcstat_ptracer60_mean       =   2.5850131925583049E-05
(PID.TID 0000.0001) %MON trcstat_ptracer60_sd         =   1.3552335485206231E-04
(PID.TID 0000.0001) %MON trcstat_ptracer60_del2       =   0.0000000000000000E+00
(PID.TID 0000.0001) %MON trcstat_ptracer61_max        =   8.8159912630328353E-04
(PID.TID 0000.0001) %MON trcstat_ptracer61_min        =   1.3739850072285331E-35
(PID.TID 0000.0001) %MON trcstat_ptracer61_mean       =   2.6196971209993715E-05
(PID.TID 0000.0001) %MON trcstat_ptracer61_sd         =   1.3745628141504455E-04
(PID.TID 0000.0001) %MON trcstat_ptracer61_del2       =   0.0000000000000000E+00
(PID.TID 0000.0001) %MON trcstat_ptracer62_max        =   8.8453792100040291E-04
(PID.TID 0000.0001) %MON trcstat_ptracer62_min        =   1.3739850072285331E-35
(PID.TID 0000.0001) %MON trcstat_ptracer62_mean       =   2.6120869378056999E-05
(PID.TID 0000.0001) %MON trcstat_ptracer62_sd         =   1.3715098198633713E-04
(PID.TID 0000.0001) %MON trcstat_ptracer62_del2       =   0.0000000000000000E+00
(PID.TID 0000.0001) %MON trcstat_ptracer63_max        =   8.6691171288745322E-04
(PID.TID 0000.0001) %MON trcstat_ptracer63_min        =   1.3739850072285331E-35
(PID.TID 0000.0001) %MON trcstat_ptracer63_mean       =   2.5849548560050570E-05
(PID.TID 0000.0001) %MON trcstat_ptracer63_sd         =   1.3552172203848759E-04
(PID.TID 0000.0001) %MON trcstat_ptracer63_del2       =   0.0000000000000000E+00
(PID.TID 0000.0001) %MON trcstat_ptracer64_max        =   8.6691171288844884E-04
(PID.TID 0000.0001) %MON trcstat_ptracer64_min        =   1.3739850072285331E-35
(PID.TID 0000.0001) %MON trcstat_ptracer64_mean       =   2.5849548560069415E-05
(PID.TID 0000.0001) %MON trcstat_ptracer64_sd         =   1.3552172203859110E-04
(PID.TID 0000.0001) %MON trcstat_ptracer64_del2       =   0.0000000000000000E+00
(PID.TID 0000.0001) %MON trcstat_ptracer65_max        =   8.8140410480712383E-04
(PID.TID 0000.0001) %MON trcstat_ptracer65_min        =   1.3739850072285331E-35
(PID.TID 0000.0001) %MON trcstat_ptracer65_mean       =   2.6066666135966043E-05
(PID.TID 0000.0001) %MON trcstat_ptracer65_sd         =   1.3681405539654154E-04
(PID.TID 0000.0001) %MON trcstat_ptracer65_del2       =   0.0000000000000000E+00
(PID.TID 0000.0001) %MON trcstat_ptracer66_max        =   9.0229966476483613E-04
(PID.TID 0000.0001) %MON trcstat_ptracer66_min        =   1.6992725818009339E-27
(PID.TID 0000.0001) %MON trcstat_ptracer66_mean       =   2.6583340439599054E-05
(PID.TID 0000.0001) %MON trcstat_ptracer66_sd         =   1.3976713170670699E-04
(PID.TID 0000.0001) %MON trcstat_ptracer66_del2       =   0.0000000000000000E+00
(PID.TID 0000.0001) %MON trcstat_ptracer67_max        =   8.6683865064468113E-04
(PID.TID 0000.0001) %MON trcstat_ptracer67_min        =   1.6992725818009339E-27
(PID.TID 0000.0001) %MON trcstat_ptracer67_mean       =   2.5849548567561204E-05
(PID.TID 0000.0001) %MON trcstat_ptracer67_sd         =   1.3545288047757718E-04
(PID.TID 0000.0001) %MON trcstat_ptracer67_del2       =   0.0000000000000000E+00
(PID.TID 0000.0001) %MON trcstat_ptracer68_max        =   8.6691171288820435E-04
(PID.TID 0000.0001) %MON trcstat_ptracer68_min        =   1.3739850072285331E-35
(PID.TID 0000.0001) %MON trcstat_ptracer68_mean       =   2.5849548560063797E-05
(PID.TID 0000.0001) %MON trcstat_ptracer68_sd         =   1.3552172203856061E-04
(PID.TID 0000.0001) %MON trcstat_ptracer68_del2       =   0.0000000000000000E+00
(PID.TID 0000.0001) %MON trcstat_ptracer69_max        =   8.6683865064458312E-04
(PID.TID 0000.0001) %MON trcstat_ptracer69_min        =   1.6992725818009339E-27
(PID.TID 0000.0001) %MON trcstat_ptracer69_mean       =   2.5849548567559212E-05
(PID.TID 0000.0001) %MON trcstat_ptracer69_sd         =   1.3545288047756568E-04
(PID.TID 0000.0001) %MON trcstat_ptracer69_del2       =   0.0000000000000000E+00
(PID.TID 0000.0001) %MON trcstat_ptracer70_max        =   8.6691171288763537E-04
(PID.TID 0000.0001) %MON trcstat_ptracer70_min        =   1.3739850072285331E-35
(PID.TID 0000.0001) %MON trcstat_ptracer70_mean       =   2.5854677781532237E-05
(PID.TID 0000.0001) %MON trcstat_ptracer70_sd         =   1.3552850597671259E-04
(PID.TID 0000.0001) %MON trcstat_ptracer70_del2       =   0.0000000000000000E+00
(PID.TID 0000.0001) %MON trcstat_ptracer71_max        =   9.0438706511982217E-04
(PID.TID 0000.0001) %MON trcstat_ptracer71_min        =   1.6992725818009339E-27
(PID.TID 0000.0001) %MON trcstat_ptracer71_mean       =   2.6620987049332702E-05
(PID.TID 0000.0001) %MON trcstat_ptracer71_sd         =   1.3995455152679382E-04
(PID.TID 0000.0001) %MON trcstat_ptracer71_del2       =   0.0000000000000000E+00
(PID.TID 0000.0001) %MON trcstat_ptracer72_max        =   8.7896080850348522E-04
(PID.TID 0000.0001) %MON trcstat_ptracer72_min        =   1.6992725818009339E-27
(PID.TID 0000.0001) %MON trcstat_ptracer72_mean       =   2.6128604471249365E-05
(PID.TID 0000.0001) %MON trcstat_ptracer72_sd         =   1.3710119820542239E-04
(PID.TID 0000.0001) %MON trcstat_ptracer72_del2       =   0.0000000000000000E+00
(PID.TID 0000.0001) %MON trcstat_ptracer73_max        =   8.8287726737677351E-04
(PID.TID 0000.0001) %MON trcstat_ptracer73_min        =   1.6992725818008901E-27
(PID.TID 0000.0001) %MON trcstat_ptracer73_mean       =   2.6185455245458685E-05
(PID.TID 0000.0001) %MON trcstat_ptracer73_sd         =   1.3737474131333738E-04
(PID.TID 0000.0001) %MON trcstat_ptracer73_del2       =   0.0000000000000000E+00
(PID.TID 0000.0001) %MON trcstat_ptracer74_max        =   8.6691171288739749E-04
(PID.TID 0000.0001) %MON trcstat_ptracer74_min        =   1.3739850072285331E-35
(PID.TID 0000.0001) %MON trcstat_ptracer74_mean       =   2.5849548560051336E-05
(PID.TID 0000.0001) %MON trcstat_ptracer74_sd         =   1.3552172203848897E-04
(PID.TID 0000.0001) %MON trcstat_ptracer74_del2       =   0.0000000000000000E+00
(PID.TID 0000.0001) %MON trcstat_ptracer75_max        =   8.9884319588205057E-04
(PID.TID 0000.0001) %MON trcstat_ptracer75_min        =   1.6992725818008901E-27
(PID.TID 0000.0001) %MON trcstat_ptracer75_mean       =   2.6542062859842458E-05
(PID.TID 0000.0001) %MON trcstat_ptracer75_sd         =   1.3956635715784809E-04
(PID.TID 0000.0001) %MON trcstat_ptracer75_del2       =   0.0000000000000000E+00
(PID.TID 0000.0001) %MON trcstat_ptracer76_max        =   8.6683865064497647E-04
(PID.TID 0000.0001) %MON trcstat_ptracer76_min        =   1.6992725818009339E-27
(PID.TID 0000.0001) %MON trcstat_ptracer76_mean       =   2.5849548567567557E-05
(PID.TID 0000.0001) %MON trcstat_ptracer76_sd         =   1.3545288047761472E-04
(PID.TID 0000.0001) %MON trcstat_ptracer76_del2       =   0.0000000000000000E+00
(PID.TID 0000.0001) %MON trcstat_ptracer77_max        =   9.0436705759897387E-04
(PID.TID 0000.0001) %MON trcstat_ptracer77_min        =   1.6992725818009339E-27
(PID.TID 0000.0001) %MON trcstat_ptracer77_mean       =   2.6681717329687306E-05
(PID.TID 0000.0001) %MON trcstat_ptracer77_sd         =   1.4040890768795121E-04
(PID.TID 0000.0001) %MON trcstat_ptracer77_del2       =   0.0000000000000000E+00
(PID.TID 0000.0001) %MON trcstat_ptracer78_max        =   8.6683865064455948E-04
(PID.TID 0000.0001) %MON trcstat_ptracer78_min        =   1.6992725818009339E-27
(PID.TID 0000.0001) %MON trcstat_ptracer78_mean       =   2.5849548567559863E-05
(PID.TID 0000.0001) %MON trcstat_ptracer78_sd         =   1.3545288047757032E-04
(PID.TID 0000.0001) %MON trcstat_ptracer78_del2       =   0.0000000000000000E+00
(PID.TID 0000.0001) %MON trcstat_ptracer79_max        =   8.8569474799836097E-04
(PID.TID 0000.0001) %MON trcstat_ptracer79_min        =   1.6992725818008901E-27
(PID.TID 0000.0001) %MON trcstat_ptracer79_mean       =   2.6370785016276643E-05
(PID.TID 0000.0001) %MON trcstat_ptracer79_sd         =   1.3859046842004560E-04
(PID.TID 0000.0001) %MON trcstat_ptracer79_del2       =   0.0000000000000000E+00
(PID.TID 0000.0001) %MON trcstat_ptracer80_max        =   8.6683865064409458E-04
(PID.TID 0000.0001) %MON trcstat_ptracer80_min        =   1.6992725818009339E-27
(PID.TID 0000.0001) %MON trcstat_ptracer80_mean       =   2.5849548567553649E-05
(PID.TID 0000.0001) %MON trcstat_ptracer80_sd         =   1.3545288047753451E-04
(PID.TID 0000.0001) %MON trcstat_ptracer80_del2       =   0.0000000000000000E+00
(PID.TID 0000.0001) %MON trcstat_ptracer81_max        =   8.6683865064478803E-04
(PID.TID 0000.0001) %MON trcstat_ptracer81_min        =   1.6992725818009339E-27
(PID.TID 0000.0001) %MON trcstat_ptracer81_mean       =   2.5849548567565494E-05
(PID.TID 0000.0001) %MON trcstat_ptracer81_sd         =   1.3545288047760385E-04
(PID.TID 0000.0001) %MON trcstat_ptracer81_del2       =   0.0000000000000000E+00
(PID.TID 0000.0001) %MON trcstat_ptracer82_max        =   8.8444894711777985E-04
(PID.TID 0000.0001) %MON trcstat_ptracer82_min        =   1.3739850072285331E-35
(PID.TID 0000.0001) %MON trcstat_ptracer82_mean       =   2.6109057189283037E-05
(PID.TID 0000.0001) %MON trcstat_ptracer82_sd         =   1.3706713907698896E-04
(PID.TID 0000.0001) %MON trcstat_ptracer82_del2       =   0.0000000000000000E+00
(PID.TID 0000.0001) %MON trcstat_ptracer83_max        =   8.6691171288791975E-04
(PID.TID 0000.0001) %MON trcstat_ptracer83_min        =   1.3739850072285331E-35
(PID.TID 0000.0001) %MON trcstat_ptracer83_mean       =   2.5849548560058756E-05
(PID.TID 0000.0001) %MON trcstat_ptracer83_sd         =   1.3552172203853177E-04
(PID.TID 0000.0001) %MON trcstat_ptracer83_del2       =   0.0000000000000000E+00
(PID.TID 0000.0001) %MON trcstat_ptracer84_max        =   8.6691171288775051E-04
(PID.TID 0000.0001) %MON trcstat_ptracer84_min        =   1.3739850072285331E-35
(PID.TID 0000.0001) %MON trcstat_ptracer84_mean       =   2.5849548560056787E-05
(PID.TID 0000.0001) %MON trcstat_ptracer84_sd         =   1.3552172203852036E-04
(PID.TID 0000.0001) %MON trcstat_ptracer84_del2       =   0.0000000000000000E+00
(PID.TID 0000.0001) %MON trcstat_ptracer85_max        =   8.8575526923944737E-04
(PID.TID 0000.0001) %MON trcstat_ptracer85_min        =   1.3739850072285331E-35
(PID.TID 0000.0001) %MON trcstat_ptracer85_mean       =   2.6224631421747687E-05
(PID.TID 0000.0001) %MON trcstat_ptracer85_sd         =   1.3766146563298602E-04
(PID.TID 0000.0001) %MON trcstat_ptracer85_del2       =   0.0000000000000000E+00
(PID.TID 0000.0001) %MON trcstat_ptracer86_max        =   8.6683865037631247E-04
(PID.TID 0000.0001) %MON trcstat_ptracer86_min        =   1.6992725818008901E-27
(PID.TID 0000.0001) %MON trcstat_ptracer86_mean       =   2.5849548560062252E-05
(PID.TID 0000.0001) %MON trcstat_ptracer86_sd         =   1.3545288043721195E-04
(PID.TID 0000.0001) %MON trcstat_ptracer86_del2       =   0.0000000000000000E+00
(PID.TID 0000.0001) %MON trcstat_ptracer87_max        =   8.6691171288757400E-04
(PID.TID 0000.0001) %MON trcstat_ptracer87_min        =   1.3739850072285331E-35
(PID.TID 0000.0001) %MON trcstat_ptracer87_mean       =   2.5849548560055628E-05
(PID.TID 0000.0001) %MON trcstat_ptracer87_sd         =   1.3552172203851141E-04
(PID.TID 0000.0001) %MON trcstat_ptracer87_del2       =   0.0000000000000000E+00
(PID.TID 0000.0001) %MON trcstat_ptracer88_max        =   8.9968614943340154E-04
(PID.TID 0000.0001) %MON trcstat_ptracer88_min        =   1.6992725818008901E-27
(PID.TID 0000.0001) %MON trcstat_ptracer88_mean       =   2.6566024986608786E-05
(PID.TID 0000.0001) %MON trcstat_ptracer88_sd         =   1.3973463943715270E-04
(PID.TID 0000.0001) %MON trcstat_ptracer88_del2       =   0.0000000000000000E+00
(PID.TID 0000.0001) %MON trcstat_ptracer89_max        =   8.9131571185501076E-04
(PID.TID 0000.0001) %MON trcstat_ptracer89_min        =   1.3739850072285331E-35
(PID.TID 0000.0001) %MON trcstat_ptracer89_mean       =   2.6289679444449883E-05
(PID.TID 0000.0001) %MON trcstat_ptracer89_sd         =   1.3809430348172414E-04
(PID.TID 0000.0001) %MON trcstat_ptracer89_del2       =   0.0000000000000000E+00
(PID.TID 0000.0001) %MON trcstat_ptracer90_max        =   8.6691171288745994E-04
(PID.TID 0000.0001) %MON trcstat_ptracer90_min        =   1.3739850072285331E-35
(PID.TID 0000.0001) %MON trcstat_ptracer90_mean       =   2.5849549531710012E-05
(PID.TID 0000.0001) %MON trcstat_ptracer90_sd         =   1.3552172243518239E-04
(PID.TID 0000.0001) %MON trcstat_ptracer90_del2       =   0.0000000000000000E+00
(PID.TID 0000.0001) %MON trcstat_ptracer91_max        =   9.0056761307367517E-04
(PID.TID 0000.0001) %MON trcstat_ptracer91_min        =   1.6992725818008901E-27
(PID.TID 0000.0001) %MON trcstat_ptracer91_mean       =   2.6576706451357534E-05
(PID.TID 0000.0001) %MON trcstat_ptracer91_sd         =   1.3979228605067188E-04
(PID.TID 0000.0001) %MON trcstat_ptracer91_del2       =   0.0000000000000000E+00
(PID.TID 0000.0001) %MON trcstat_ptracer92_max        =   8.6691171288748249E-04
(PID.TID 0000.0001) %MON trcstat_ptracer92_min        =   1.3739850072285331E-35
(PID.TID 0000.0001) %MON trcstat_ptracer92_mean       =   2.5849548560053629E-05
(PID.TID 0000.0001) %MON trcstat_ptracer92_sd         =   1.3552172203850163E-04
(PID.TID 0000.0001) %MON trcstat_ptracer92_del2       =   0.0000000000000000E+00
(PID.TID 0000.0001) %MON trcstat_ptracer93_max        =   8.6691171288731043E-04
(PID.TID 0000.0001) %MON trcstat_ptracer93_min        =   1.3739850072285331E-35
(PID.TID 0000.0001) %MON trcstat_ptracer93_mean       =   2.5849548560053321E-05
(PID.TID 0000.0001) %MON trcstat_ptracer93_sd         =   1.3552172203849564E-04
(PID.TID 0000.0001) %MON trcstat_ptracer93_del2       =   0.0000000000000000E+00
(PID.TID 0000.0001) %MON trcstat_ptracer94_max        =   8.7099759678905240E-04
(PID.TID 0000.0001) %MON trcstat_ptracer94_min        =   1.3739850072285331E-35
(PID.TID 0000.0001) %MON trcstat_ptracer94_mean       =   2.5968336069832403E-05
(PID.TID 0000.0001) %MON trcstat_ptracer94_sd         =   1.3616590634099980E-04
(PID.TID 0000.0001) %MON trcstat_ptracer94_del2       =   0.0000000000000000E+00
(PID.TID 0000.0001) %MON trcstat_ptracer95_max        =   9.1165030445605267E-04
(PID.TID 0000.0001) %MON trcstat_ptracer95_min        =   1.6992725818008901E-27
(PID.TID 0000.0001) %MON trcstat_ptracer95_mean       =   2.6781371326388979E-05
(PID.TID 0000.0001) %MON trcstat_ptracer95_sd         =   1.4096594100230296E-04
(PID.TID 0000.0001) %MON trcstat_ptracer95_del2       =   0.0000000000000000E+00
(PID.TID 0000.0001) %MON trcstat_ptracer96_max        =   1.2365404234499101E-07
(PID.TID 0000.0001) %MON trcstat_ptracer96_min        =   9.6539308657120588E-34
(PID.TID 0000.0001) %MON trcstat_ptracer96_mean       =   1.6351679669687197E-08
(PID.TID 0000.0001) %MON trcstat_ptracer96_sd         =   2.9908538535968731E-08
(PID.TID 0000.0001) %MON trcstat_ptracer96_del2       =   0.0000000000000000E+00
(PID.TID 0000.0001) %MON trcstat_ptracer97_max        =   1.2365496306255092E-07
(PID.TID 0000.0001) %MON trcstat_ptracer97_min        =   9.6539308657060684E-34
(PID.TID 0000.0001) %MON trcstat_ptracer97_mean       =   1.6351704759190815E-08
(PID.TID 0000.0001) %MON trcstat_ptracer97_sd         =   2.9908622840434771E-08
(PID.TID 0000.0001) %MON trcstat_ptracer97_del2       =   0.0000000000000000E+00
