(PID.TID 0000.0001) 
(PID.TID 0000.0001) // ======================================================
(PID.TID 0000.0001) //                      MITgcm UV
(PID.TID 0000.0001) //                      =========
(PID.TID 0000.0001) // ======================================================
(PID.TID 0000.0001) // execution environment starting up...
(PID.TID 0000.0001) 
(PID.TID 0000.0001) // MITgcmUV version:  checkpoint65m
(PID.TID 0000.0001) // Build user:        jahn
(PID.TID 0000.0001) // Build host:        node199
(PID.TID 0000.0001) // Build date:        Thu Jan  7 17:07:55 EST 2016
(PID.TID 0000.0001) 
(PID.TID 0000.0001) // =======================================================
(PID.TID 0000.0001) // Execution Environment parameter file "eedata"
(PID.TID 0000.0001) // =======================================================
(PID.TID 0000.0001) ># Example "eedata" file
(PID.TID 0000.0001) ># Lines beginning "#" are comments
(PID.TID 0000.0001) ># nTx - No. threads per process in X
(PID.TID 0000.0001) ># nTy - No. threads per process in Y
(PID.TID 0000.0001) > &EEPARMS
(PID.TID 0000.0001) > nTx=1,nTy=1
(PID.TID 0000.0001) > /
(PID.TID 0000.0001) ># Note: Some systems use & as the
(PID.TID 0000.0001) ># namelist terminator. Other systems
(PID.TID 0000.0001) ># use a / character (as shown here).
(PID.TID 0000.0001) 
(PID.TID 0000.0001) // =======================================================
(PID.TID 0000.0001) // Computational Grid Specification ( see files "SIZE.h" )
(PID.TID 0000.0001) //                                  ( and "eedata"       )
(PID.TID 0000.0001) // =======================================================
(PID.TID 0000.0001)      nPx =    4 ; /* No. processes in X */
(PID.TID 0000.0001)      nPy =    4 ; /* No. processes in Y */
(PID.TID 0000.0001)      nSx =    2 ; /* No. tiles in X per process */
(PID.TID 0000.0001)      nSy =    1 ; /* No. tiles in Y per process */
(PID.TID 0000.0001)      sNx =   45 ; /* Tile size in X */
(PID.TID 0000.0001)      sNy =   40 ; /* Tile size in Y */
(PID.TID 0000.0001)      OLx =    4 ; /* Tile overlap distance in X */
(PID.TID 0000.0001)      OLy =    4 ; /* Tile overlap distance in Y */
(PID.TID 0000.0001)      nTx =    1 ; /* No. threads in X per process */
(PID.TID 0000.0001)      nTy =    1 ; /* No. threads in Y per process */
(PID.TID 0000.0001)       Nr =   23 ; /* No. levels in the vertical   */
(PID.TID 0000.0001)       Nx =  360 ; /* Total domain size in X ( = nPx*nSx*sNx ) */
(PID.TID 0000.0001)       Ny =  160 ; /* Total domain size in Y ( = nPy*nSy*sNy ) */
(PID.TID 0000.0001)   nTiles =    2 ; /* Total no. tiles per process ( = nSx*nSy ) */
(PID.TID 0000.0001)   nProcs =   16 ; /* Total no. processes ( = nPx*nPy ) */
(PID.TID 0000.0001) nThreads =    1 ; /* Total no. threads per process ( = nTx*nTy ) */
(PID.TID 0000.0001) usingMPI =    T ; /* Flag used to control whether MPI is in use */
(PID.TID 0000.0001)                   /*  note: To execute a program with MPI calls */
(PID.TID 0000.0001)                   /*  it must be launched appropriately e.g     */
(PID.TID 0000.0001)                   /*  "mpirun -np 64 ......"                    */
(PID.TID 0000.0001) useCoupler=    F ;/* Flag used to control communications with   */
(PID.TID 0000.0001)                   /*  other model components, through a coupler */
(PID.TID 0000.0001) debugMode =    F ; /* print debug msg. (sequence of S/R calls)  */
(PID.TID 0000.0001) printMapIncludesZeros=    F ; /* print zeros in Std.Output maps */
(PID.TID 0000.0001) maxLengthPrt1D=   65 /* maxLength of 1D array printed to StdOut */
(PID.TID 0000.0001) 
(PID.TID 0000.0001) ======= Starting MPI parallel Run =========
(PID.TID 0000.0001)  My Processor Name (len:  7 ) = node199
(PID.TID 0000.0001)  Located at (  0,  0) on processor grid (0:  3,0:  3)
(PID.TID 0000.0001)  Origin at  (     1,     1) on global grid (1:   360,1:   160)
(PID.TID 0000.0001)  North neighbor = processor 0001
(PID.TID 0000.0001)  South neighbor = processor 0003
(PID.TID 0000.0001)   East neighbor = processor 0004
(PID.TID 0000.0001)   West neighbor = processor 0012
(PID.TID 0000.0001) // ======================================================
(PID.TID 0000.0001) // Mapping of tiles to threads
(PID.TID 0000.0001) // ======================================================
(PID.TID 0000.0001) // -o- Thread   1, tiles (   1:   2,   1:   1)
(PID.TID 0000.0001) 
(PID.TID 0000.0001) // ======================================================
(PID.TID 0000.0001) // Tile <-> Tile connectvity table
(PID.TID 0000.0001) // ======================================================
(PID.TID 0000.0001) // Tile number: 000001 (process no. = 000000)
(PID.TID 0000.0001) //        WEST: Tile = 000008, Process = 000012, Comm = messages
(PID.TID 0000.0001) //                bi = 000002, bj = 000001
(PID.TID 0000.0001) //        EAST: Tile = 000002, Process = 000000, Comm = put
(PID.TID 0000.0001) //                bi = 000002, bj = 000001
(PID.TID 0000.0001) //       SOUTH: Tile = 000025, Process = 000003, Comm = messages
(PID.TID 0000.0001) //                bi = 000001, bj = 000001
(PID.TID 0000.0001) //       NORTH: Tile = 000009, Process = 000001, Comm = messages
(PID.TID 0000.0001) //                bi = 000001, bj = 000001
(PID.TID 0000.0001) // Tile number: 000002 (process no. = 000000)
(PID.TID 0000.0001) //        WEST: Tile = 000001, Process = 000000, Comm = put
(PID.TID 0000.0001) //                bi = 000001, bj = 000001
(PID.TID 0000.0001) //        EAST: Tile = 000003, Process = 000004, Comm = messages
(PID.TID 0000.0001) //                bi = 000001, bj = 000001
(PID.TID 0000.0001) //       SOUTH: Tile = 000026, Process = 000003, Comm = messages
(PID.TID 0000.0001) //                bi = 000002, bj = 000001
(PID.TID 0000.0001) //       NORTH: Tile = 000010, Process = 000001, Comm = messages
(PID.TID 0000.0001) //                bi = 000002, bj = 000001
(PID.TID 0000.0001) 
(PID.TID 0000.0001)  INI_PARMS: opening model parameter file "data"
(PID.TID 0000.0001)  OPEN_COPY_DATA_FILE: opening file data
(PID.TID 0000.0001) // =======================================================
(PID.TID 0000.0001) // Removing comments from "data"
(PID.TID 0000.0001) // =======================================================
(PID.TID 0000.0001)    1 &PARM01
(PID.TID 0000.0001)    2 tRef= 24.0 , 23.0 , 22.0 , 21.0 , 20.0 ,
(PID.TID 0000.0001)    3       19.0 , 18.0 , 17.0 , 16.0 , 15.0 ,
(PID.TID 0000.0001)    4       14.0 , 13.0 , 12.0 , 11.0 , 10.0 ,
(PID.TID 0000.0001)    5        9.0 ,  8.0 ,  7.0 ,  6.0,   5.0 ,
(PID.TID 0000.0001)    6        4.0 ,  3.0 ,  2.0 ,
(PID.TID 0000.0001)    7 sRef= 34.65, 34.75, 34.82, 34.87, 34.90,
(PID.TID 0000.0001)    8       34.90, 34.86, 34.78, 34.69, 34.60,
(PID.TID 0000.0001)    9       34.58, 34.62, 34.68, 34.72, 34.73,
(PID.TID 0000.0001)   10       34.74, 34.73, 34.73, 34.72, 34.72,
(PID.TID 0000.0001)   11       34.71, 34.70, 34.69,
(PID.TID 0000.0001)   12 no_slip_sides=.false.,
(PID.TID 0000.0001)   13 no_slip_bottom=.TRUE.,
(PID.TID 0000.0001)   14 viscAz=1.E-3,
(PID.TID 0000.0001)   15 viscAh=1.E4,
(PID.TID 0000.0001)   16 diffKhT=1.E2,
(PID.TID 0000.0001)   17 diffKzT=1.E-5,
(PID.TID 0000.0001)   18 diffKhS=1.E2,
(PID.TID 0000.0001)   19 diffKzS=1.E-5,
(PID.TID 0000.0001)   20 beta=1.E-11,
(PID.TID 0000.0001)   21 tAlpha=2.E-4,
(PID.TID 0000.0001)   22 sBeta =7.4E-4,
(PID.TID 0000.0001)   23 gravity=9.81,
(PID.TID 0000.0001)   24 gBaro=9.81,
(PID.TID 0000.0001)   25 rigidLid=.FALSE.,
(PID.TID 0000.0001)   26 implicitFreeSurface=.true.,
(PID.TID 0000.0001)   27 eosType='POLY3',
(PID.TID 0000.0001)   28 saltStepping=.TRUE.,
(PID.TID 0000.0001)   29 tempStepping=.TRUE.,
(PID.TID 0000.0001)   30 momStepping=.TRUE.,
(PID.TID 0000.0001)   31 implicitDiffusion=.true.,
(PID.TID 0000.0001)   32 implicitViscosity=.true.,
(PID.TID 0000.0001)   33 allowFreezing=.false.,
(PID.TID 0000.0001)   34 useSingleCpuIO=.TRUE.,
(PID.TID 0000.0001)   35 useCDscheme=.FALSE.,
(PID.TID 0000.0001)   36 tempAdvScheme = 3,
(PID.TID 0000.0001)   37 saltAdvScheme = 3,
(PID.TID 0000.0001)   38 writeBinaryPrec= 64,
(PID.TID 0000.0001)   39 /
(PID.TID 0000.0001)   40
(PID.TID 0000.0001)   41 &PARM02
(PID.TID 0000.0001)   42 cg2dMaxIters=300,
(PID.TID 0000.0001)   43 cg2dTargetResidual=1.E-7,
(PID.TID 0000.0001)   44 /
(PID.TID 0000.0001)   45
(PID.TID 0000.0001)   46 &PARM03
(PID.TID 0000.0001)   47  nIter0=0,
(PID.TID 0000.0001)   48  nTimeSteps=4,
(PID.TID 0000.0001)   49  deltaTmom=10800.,
(PID.TID 0000.0001)   50  deltaTtracer=10800.,
(PID.TID 0000.0001)   51  deltaTClock =10800.,
(PID.TID 0000.0001)   52  abEps=0.1,
(PID.TID 0000.0001)   53  pChkptFreq  = 31104000.,
(PID.TID 0000.0001)   54  chkptFreq   = 31104000.,
(PID.TID 0000.0001)   55  dumpInitAndLast=.FALSE.,
(PID.TID 0000.0001)   56  monitorFreq = 2592000.,
(PID.TID 0000.0001)   57  monitorFreq = 1.,
(PID.TID 0000.0001)   58  tauThetaClimRelax=0.,
(PID.TID 0000.0001)   59  tauSaltClimRelax=0.,
(PID.TID 0000.0001)   60  periodicExternalForcing=.TRUE.,
(PID.TID 0000.0001)   61  externForcingPeriod=2592000.,
(PID.TID 0000.0001)   62  externForcingCycle=31104000.,
(PID.TID 0000.0001)   63 /
(PID.TID 0000.0001)   64
(PID.TID 0000.0001)   65 &PARM04
(PID.TID 0000.0001)   66 usingCartesianGrid=.FALSE.,
(PID.TID 0000.0001)   67 usingSphericalPolarGrid=.TRUE.,
(PID.TID 0000.0001)   68 delX=360*1.E0,
(PID.TID 0000.0001)   69 delY=160*1.E0,
(PID.TID 0000.0001)   70 delZ=10.,10.,15.,20.,20.,25.,35.,50.,75.,
(PID.TID 0000.0001)   71 100.,150.,200.,275.,350.,415.,450.,500.,
(PID.TID 0000.0001)   72 500.,500.,500.,500.,500.,500.,
(PID.TID 0000.0001)   73 xgOrigin=0,
(PID.TID 0000.0001)   74 ygOrigin=-80.,
(PID.TID 0000.0001)   75 /
(PID.TID 0000.0001)   76
(PID.TID 0000.0001)   77 &PARM05
(PID.TID 0000.0001)   78 bathyFile=       '../../../data/eccov3/bathy_fl.bin',
(PID.TID 0000.0001)   79 zonalWindFile=   '',
(PID.TID 0000.0001)   80 meridWindFile=   '',
(PID.TID 0000.0001)   81 thetaClimFile=   '',
(PID.TID 0000.0001)   82 saltClimFile=    '',
(PID.TID 0000.0001)   83 surfQFile=       '',
(PID.TID 0000.0001)   84 EmPmRFile=       '',
(PID.TID 0000.0001)   85 /
(PID.TID 0000.0001) // =======================================================
(PID.TID 0000.0001) // Parameter file "data"
(PID.TID 0000.0001) // =======================================================
(PID.TID 0000.0001) >#
(PID.TID 0000.0001) ># ******************************
(PID.TID 0000.0001) ># Model parameters
(PID.TID 0000.0001) ># Continuous equation parameters
(PID.TID 0000.0001) ># ******************************
(PID.TID 0000.0001) >&PARM01
(PID.TID 0000.0001) >tRef= 24.0 , 23.0 , 22.0 , 21.0 , 20.0 ,
(PID.TID 0000.0001) >      19.0 , 18.0 , 17.0 , 16.0 , 15.0 ,
(PID.TID 0000.0001) >      14.0 , 13.0 , 12.0 , 11.0 , 10.0 ,
(PID.TID 0000.0001) >       9.0 ,  8.0 ,  7.0 ,  6.0,   5.0 ,
(PID.TID 0000.0001) >       4.0 ,  3.0 ,  2.0 ,
(PID.TID 0000.0001) >sRef= 34.65, 34.75, 34.82, 34.87, 34.90,
(PID.TID 0000.0001) >      34.90, 34.86, 34.78, 34.69, 34.60,
(PID.TID 0000.0001) >      34.58, 34.62, 34.68, 34.72, 34.73,
(PID.TID 0000.0001) >      34.74, 34.73, 34.73, 34.72, 34.72,
(PID.TID 0000.0001) >      34.71, 34.70, 34.69,
(PID.TID 0000.0001) >no_slip_sides=.false.,
(PID.TID 0000.0001) >no_slip_bottom=.TRUE.,
(PID.TID 0000.0001) >viscAz=1.E-3,
(PID.TID 0000.0001) >viscAh=1.E4,
(PID.TID 0000.0001) >diffKhT=1.E2,
(PID.TID 0000.0001) >diffKzT=1.E-5,
(PID.TID 0000.0001) >diffKhS=1.E2,
(PID.TID 0000.0001) >diffKzS=1.E-5,
(PID.TID 0000.0001) >beta=1.E-11,
(PID.TID 0000.0001) >tAlpha=2.E-4,
(PID.TID 0000.0001) >sBeta =7.4E-4,
(PID.TID 0000.0001) >gravity=9.81,
(PID.TID 0000.0001) >gBaro=9.81,
(PID.TID 0000.0001) >rigidLid=.FALSE.,
(PID.TID 0000.0001) >implicitFreeSurface=.true.,
(PID.TID 0000.0001) >eosType='POLY3',
(PID.TID 0000.0001) >saltStepping=.TRUE.,
(PID.TID 0000.0001) >tempStepping=.TRUE.,
(PID.TID 0000.0001) >momStepping=.TRUE.,
(PID.TID 0000.0001) >implicitDiffusion=.true.,
(PID.TID 0000.0001) >implicitViscosity=.true.,
(PID.TID 0000.0001) >allowFreezing=.false.,
(PID.TID 0000.0001) >useSingleCpuIO=.TRUE.,
(PID.TID 0000.0001) >useCDscheme=.FALSE.,
(PID.TID 0000.0001) >tempAdvScheme = 3,
(PID.TID 0000.0001) >saltAdvScheme = 3,
(PID.TID 0000.0001) >writeBinaryPrec= 64,
(PID.TID 0000.0001) >/
(PID.TID 0000.0001) >
(PID.TID 0000.0001) ># **************************
(PID.TID 0000.0001) ># Elliptic solver parameters
(PID.TID 0000.0001) ># **************************
(PID.TID 0000.0001) >&PARM02
(PID.TID 0000.0001) >cg2dMaxIters=300,
(PID.TID 0000.0001) >cg2dTargetResidual=1.E-7,
(PID.TID 0000.0001) >/
(PID.TID 0000.0001) >
(PID.TID 0000.0001) ># ************************
(PID.TID 0000.0001) ># Time stepping parameters
(PID.TID 0000.0001) ># ************************
(PID.TID 0000.0001) >&PARM03
(PID.TID 0000.0001) > nIter0=0,
(PID.TID 0000.0001) > nTimeSteps=4,
(PID.TID 0000.0001) > deltaTmom=10800.,
(PID.TID 0000.0001) > deltaTtracer=10800.,
(PID.TID 0000.0001) > deltaTClock =10800.,
(PID.TID 0000.0001) > abEps=0.1,
(PID.TID 0000.0001) > pChkptFreq  = 31104000.,
(PID.TID 0000.0001) > chkptFreq   = 31104000.,
(PID.TID 0000.0001) >#dumpFreq    = 31104000.,
(PID.TID 0000.0001) > dumpInitAndLast=.FALSE.,
(PID.TID 0000.0001) >#taveFreq    = 31104000.,
(PID.TID 0000.0001) > monitorFreq = 2592000.,
(PID.TID 0000.0001) > monitorFreq = 1.,
(PID.TID 0000.0001) >#monitorFreq = 31104000.,
(PID.TID 0000.0001) > tauThetaClimRelax=0.,
(PID.TID 0000.0001) > tauSaltClimRelax=0.,
(PID.TID 0000.0001) > periodicExternalForcing=.TRUE.,
(PID.TID 0000.0001) > externForcingPeriod=2592000.,
(PID.TID 0000.0001) > externForcingCycle=31104000.,
(PID.TID 0000.0001) >/
(PID.TID 0000.0001) >
(PID.TID 0000.0001) ># *******************
(PID.TID 0000.0001) ># Gridding parameters
(PID.TID 0000.0001) ># *******************
(PID.TID 0000.0001) >&PARM04
(PID.TID 0000.0001) >usingCartesianGrid=.FALSE.,
(PID.TID 0000.0001) >usingSphericalPolarGrid=.TRUE.,
(PID.TID 0000.0001) >delX=360*1.E0,
(PID.TID 0000.0001) >delY=160*1.E0,
(PID.TID 0000.0001) >delZ=10.,10.,15.,20.,20.,25.,35.,50.,75.,
(PID.TID 0000.0001) >100.,150.,200.,275.,350.,415.,450.,500.,
(PID.TID 0000.0001) >500.,500.,500.,500.,500.,500.,
(PID.TID 0000.0001) >xgOrigin=0,
(PID.TID 0000.0001) >ygOrigin=-80.,
(PID.TID 0000.0001) >/
(PID.TID 0000.0001) >
(PID.TID 0000.0001) ># **********
(PID.TID 0000.0001) ># Data Files
(PID.TID 0000.0001) ># **********
(PID.TID 0000.0001) >&PARM05
(PID.TID 0000.0001) >bathyFile=       '../../../data/eccov3/bathy_fl.bin',
(PID.TID 0000.0001) >#hydrogThetaFile= 'input/LEVITUS_1x1_ptmp_NEW_corK',
(PID.TID 0000.0001) >#hydrogSaltFile=  'input/LEVITUS_1x1_salt_NEW_corK',
(PID.TID 0000.0001) >zonalWindFile=   '',
(PID.TID 0000.0001) >meridWindFile=   '',
(PID.TID 0000.0001) >thetaClimFile=   '',
(PID.TID 0000.0001) >saltClimFile=    '',
(PID.TID 0000.0001) >surfQFile=       '',
(PID.TID 0000.0001) >EmPmRFile=       '',
(PID.TID 0000.0001) >/
(PID.TID 0000.0001) 
(PID.TID 0000.0001)  INI_PARMS ; starts to read PARM01
(PID.TID 0000.0001)  INI_PARMS ; read PARM01 : OK
(PID.TID 0000.0001)  INI_PARMS ; starts to read PARM02
(PID.TID 0000.0001)  INI_PARMS ; read PARM02 : OK
(PID.TID 0000.0001)  INI_PARMS ; starts to read PARM03
(PID.TID 0000.0001)  INI_PARMS ; read PARM03 : OK
(PID.TID 0000.0001)  INI_PARMS ; starts to read PARM04
(PID.TID 0000.0001)  INI_PARMS ; read PARM04 : OK
(PID.TID 0000.0001)  INI_PARMS ; starts to read PARM05
(PID.TID 0000.0001)  INI_PARMS ; read PARM05 : OK
(PID.TID 0000.0001)  INI_PARMS: finished reading file "data"
(PID.TID 0000.0001)  PACKAGES_BOOT: opening data.pkg
(PID.TID 0000.0001)  OPEN_COPY_DATA_FILE: opening file data.pkg
(PID.TID 0000.0001) // =======================================================
(PID.TID 0000.0001) // Removing comments from "data.pkg"
(PID.TID 0000.0001) // =======================================================
(PID.TID 0000.0001)    1  &PACKAGES
(PID.TID 0000.0001)    2  useGMRedi=.TRUE.
(PID.TID 0000.0001)    3  usePTRACERS=.TRUE.
(PID.TID 0000.0001)    4  useGCHEM=.TRUE.,
(PID.TID 0000.0001)    5  useKPP=.TRUE.,
(PID.TID 0000.0001)    6  useMNC=.TRUE.,
(PID.TID 0000.0001)    7  useEXF=.TRUE.,
(PID.TID 0000.0001)    8  useOFFLINE=.TRUE.,
(PID.TID 0000.0001)    9  useDIAGNOSTICS=.TRUE.,
(PID.TID 0000.0001)   10  /
(PID.TID 0000.0001) // =======================================================
(PID.TID 0000.0001) // Parameter file "data.pkg"
(PID.TID 0000.0001) // =======================================================
(PID.TID 0000.0001) ># Packages
(PID.TID 0000.0001) > &PACKAGES
(PID.TID 0000.0001) > useGMRedi=.TRUE.
(PID.TID 0000.0001) > usePTRACERS=.TRUE.
(PID.TID 0000.0001) > useGCHEM=.TRUE.,
(PID.TID 0000.0001) > useKPP=.TRUE.,
(PID.TID 0000.0001) > useMNC=.TRUE.,
(PID.TID 0000.0001) > useEXF=.TRUE.,
(PID.TID 0000.0001) > useOFFLINE=.TRUE.,
(PID.TID 0000.0001) > useDIAGNOSTICS=.TRUE.,
(PID.TID 0000.0001) > /
(PID.TID 0000.0001) 
(PID.TID 0000.0001)  PACKAGES_BOOT: finished reading data.pkg
(PID.TID 0000.0001)  PACKAGES_BOOT: On/Off package Summary
 --------  pkgs with a standard "usePKG" On/Off switch in "data.pkg":  --------
 pkg/kpp                  compiled   and   used ( useKPP                   = T )
 pkg/gmredi               compiled   and   used ( useGMRedi                = T )
 pkg/cal                  compiled   and   used ( useCAL                   = T )
 pkg/exf                  compiled   and   used ( useEXF                   = T )
 pkg/sbo                  compiled but not used ( useSBO                   = F )
 pkg/ptracers             compiled   and   used ( usePTRACERS              = T )
 pkg/gchem                compiled   and   used ( useGCHEM                 = T )
 pkg/offline              compiled   and   used ( useOffLine               = T )
 pkg/diagnostics          compiled   and   used ( useDiagnostics           = T )
 pkg/mnc                  compiled   and   used ( useMNC                   = T )
 -------- pkgs without standard "usePKG" On/Off switch in "data.pkg":  --------
 pkg/generic_advdiff      compiled   and   used ( useGAD                   = T )
 pkg/mom_common           compiled   and   used ( momStepping              = T )
 pkg/mom_vecinv           compiled but not used ( +vectorInvariantMomentum = F )
 pkg/mom_fluxform         compiled   and   used ( & not vectorInvariantMom = T )
 pkg/monitor              compiled   and   used ( monitorFreq > 0.         = T )
 pkg/timeave              compiled but not used ( taveFreq > 0.            = F )
 pkg/rw                   compiled   and   used
 pkg/mdsio                compiled   and   used
(PID.TID 0000.0001)  PACKAGES_BOOT: End of package Summary
(PID.TID 0000.0001) 
(PID.TID 0000.0001)  MNC_READPARMS: opening file 'data.mnc'
(PID.TID 0000.0001)  OPEN_COPY_DATA_FILE: opening file data.mnc
(PID.TID 0000.0001) // =======================================================
(PID.TID 0000.0001) // Removing comments from "data.mnc"
(PID.TID 0000.0001) // =======================================================
(PID.TID 0000.0001)    1  &MNC_01
(PID.TID 0000.0001)    2  mnc_use_outdir=.TRUE.,
(PID.TID 0000.0001)    3  mnc_outdir_str='ecco_gud_',
(PID.TID 0000.0001)    4  mnc_outdir_date=.TRUE.,
(PID.TID 0000.0001)    5  monitor_mnc=.FALSE.,
(PID.TID 0000.0001)    6  snapshot_mnc=.TRUE.,
(PID.TID 0000.0001)    7  timeave_mnc=.TRUE.,
(PID.TID 0000.0001)    8  pickup_read_mnc=.FALSE.,
(PID.TID 0000.0001)    9  pickup_write_mnc=.FALSE.,
(PID.TID 0000.0001)   10  mnc_max_fsize=1E12,
(PID.TID 0000.0001)   11  /
(PID.TID 0000.0001) // =======================================================
(PID.TID 0000.0001) // Parameter file "data.mnc"
(PID.TID 0000.0001) // =======================================================
(PID.TID 0000.0001) ># Example "data.mnc" file
(PID.TID 0000.0001) ># Lines beginning "#" are comments
(PID.TID 0000.0001) > &MNC_01
(PID.TID 0000.0001) ># mnc_echo_gvtypes=.FALSE.,
(PID.TID 0000.0001) ># mnc_use_indir=.FALSE.,
(PID.TID 0000.0001) > mnc_use_outdir=.TRUE.,
(PID.TID 0000.0001) > mnc_outdir_str='ecco_gud_',
(PID.TID 0000.0001) > mnc_outdir_date=.TRUE.,
(PID.TID 0000.0001) > monitor_mnc=.FALSE.,
(PID.TID 0000.0001) > snapshot_mnc=.TRUE.,
(PID.TID 0000.0001) > timeave_mnc=.TRUE.,
(PID.TID 0000.0001) > pickup_read_mnc=.FALSE.,
(PID.TID 0000.0001) > pickup_write_mnc=.FALSE.,
(PID.TID 0000.0001) > mnc_max_fsize=1E12,
(PID.TID 0000.0001) > /
(PID.TID 0000.0001) ># Note: Some systems use & as the
(PID.TID 0000.0001) ># namelist terminator. Other systems
(PID.TID 0000.0001) ># use a / character.
(PID.TID 0000.0001) 
(PID.TID 0000.0001)  MNC_READPARMS: finished reading data.mnc
(PID.TID 0000.0001) CAL_READPARMS: opening data.cal
(PID.TID 0000.0001)  OPEN_COPY_DATA_FILE: opening file data.cal
(PID.TID 0000.0001) // =======================================================
(PID.TID 0000.0001) // Removing comments from "data.cal"
(PID.TID 0000.0001) // =======================================================
(PID.TID 0000.0001)    1  &CAL_NML
(PID.TID 0000.0001)    2  TheCalendar='model',
(PID.TID 0000.0001)    3  startDate_1=20000101,
(PID.TID 0000.0001)    4  startDate_2=000000,
(PID.TID 0000.0001)    5  calendarDumps = .TRUE.
(PID.TID 0000.0001)    6  /
(PID.TID 0000.0001) // =======================================================
(PID.TID 0000.0001) // Parameter file "data.cal"
(PID.TID 0000.0001) // =======================================================
(PID.TID 0000.0001) ># *******************
(PID.TID 0000.0001) ># Calendar Parameters
(PID.TID 0000.0001) ># *******************
(PID.TID 0000.0001) > &CAL_NML
(PID.TID 0000.0001) > TheCalendar='model',
(PID.TID 0000.0001) > startDate_1=20000101,
(PID.TID 0000.0001) > startDate_2=000000,
(PID.TID 0000.0001) > calendarDumps = .TRUE.
(PID.TID 0000.0001) > /
(PID.TID 0000.0001) 
(PID.TID 0000.0001) CAL_READPARMS: finished reading data.cal
(PID.TID 0000.0001) EXF_READPARMS: opening data.exf
(PID.TID 0000.0001)  OPEN_COPY_DATA_FILE: opening file data.exf
(PID.TID 0000.0001) // =======================================================
(PID.TID 0000.0001) // Removing comments from "data.exf"
(PID.TID 0000.0001) // =======================================================
(PID.TID 0000.0001)    1  &EXF_NML_01
(PID.TID 0000.0001)    2  exf_iprec         = 32,
(PID.TID 0000.0001)    3  exf_yftype        = 'RL',
(PID.TID 0000.0001)    4  useExfCheckRange  = .FALSE.,
(PID.TID 0000.0001)    5  repeatPeriod = 31104000.,
(PID.TID 0000.0001)    6  /
(PID.TID 0000.0001)    7  &EXF_NML_02
(PID.TID 0000.0001)    8  /
(PID.TID 0000.0001)    9  &EXF_NML_03
(PID.TID 0000.0001)   10  /
(PID.TID 0000.0001)   11  &EXF_NML_04
(PID.TID 0000.0001)   12  /
(PID.TID 0000.0001) // =======================================================
(PID.TID 0000.0001) // Parameter file "data.exf"
(PID.TID 0000.0001) // =======================================================
(PID.TID 0000.0001) ># *********************
(PID.TID 0000.0001) ># External Forcing Data
(PID.TID 0000.0001) ># *********************
(PID.TID 0000.0001) >#
(PID.TID 0000.0001) > &EXF_NML_01
(PID.TID 0000.0001) > exf_iprec         = 32,
(PID.TID 0000.0001) > exf_yftype        = 'RL',
(PID.TID 0000.0001) ># useExfYearlyFields= .TRUE.,
(PID.TID 0000.0001) ># twoDigitYear      = .TRUE.,
(PID.TID 0000.0001) > useExfCheckRange  = .FALSE.,
(PID.TID 0000.0001) > repeatPeriod = 31104000.,
(PID.TID 0000.0001) > /
(PID.TID 0000.0001) >#
(PID.TID 0000.0001) > &EXF_NML_02
(PID.TID 0000.0001) > /
(PID.TID 0000.0001) >#
(PID.TID 0000.0001) > &EXF_NML_03
(PID.TID 0000.0001) > /
(PID.TID 0000.0001) >#
(PID.TID 0000.0001) > &EXF_NML_04
(PID.TID 0000.0001) > /
(PID.TID 0000.0001) 
(PID.TID 0000.0001) EXF_READPARMS: reading EXF_NML_01
(PID.TID 0000.0001) EXF_READPARMS: reading EXF_NML_02
(PID.TID 0000.0001) EXF_READPARMS: reading EXF_NML_03
(PID.TID 0000.0001) EXF_READPARMS: finished reading data.exf
(PID.TID 0000.0001)  KPP_INIT: opening data.kpp
(PID.TID 0000.0001)  OPEN_COPY_DATA_FILE: opening file data.kpp
(PID.TID 0000.0001) // =======================================================
(PID.TID 0000.0001) // Removing comments from "data.kpp"
(PID.TID 0000.0001) // =======================================================
(PID.TID 0000.0001)    1  &KPP_PARM01
(PID.TID 0000.0001)    2  /
(PID.TID 0000.0001) // =======================================================
(PID.TID 0000.0001) // Parameter file "data.kpp"
(PID.TID 0000.0001) // =======================================================
(PID.TID 0000.0001) >#
(PID.TID 0000.0001) ># ***************
(PID.TID 0000.0001) ># Open boundaries
(PID.TID 0000.0001) ># ***************
(PID.TID 0000.0001) > &KPP_PARM01
(PID.TID 0000.0001) ># KPPwriteState   = .TRUE.,
(PID.TID 0000.0001) > /
(PID.TID 0000.0001) 
(PID.TID 0000.0001)  KPP_INIT: finished reading data.kpp
(PID.TID 0000.0001)  GM_READPARMS: opening data.gmredi
(PID.TID 0000.0001)  OPEN_COPY_DATA_FILE: opening file data.gmredi
(PID.TID 0000.0001) // =======================================================
(PID.TID 0000.0001) // Removing comments from "data.gmredi"
(PID.TID 0000.0001) // =======================================================
(PID.TID 0000.0001)    1
(PID.TID 0000.0001)    2
(PID.TID 0000.0001)    3 (default=GM_background_K)
(PID.TID 0000.0001)    4 form)
(PID.TID 0000.0001)    5
(PID.TID 0000.0001)    6  &GM_PARM01
(PID.TID 0000.0001)    7   GM_Small_Number    = 1.D-20,
(PID.TID 0000.0001)    8   GM_slopeSqCutoff   = 1.D+08,
(PID.TID 0000.0001)    9   GM_AdvForm         = .FALSE.,
(PID.TID 0000.0001)   10   GM_isopycK         = 1.D+3,
(PID.TID 0000.0001)   11   GM_background_K    = 1.D+3,
(PID.TID 0000.0001)   12   GM_maxSlope        = 1.D-2,
(PID.TID 0000.0001)   13   GM_taper_scheme    = 'dm95',
(PID.TID 0000.0001)   14   GM_Kmin_horiz      = 50.,
(PID.TID 0000.0001)   15   GM_Scrit           = 4.D-3,
(PID.TID 0000.0001)   16   GM_Sd              = 1.D-3,
(PID.TID 0000.0001)   17  /
(PID.TID 0000.0001)   18
(PID.TID 0000.0001) // =======================================================
(PID.TID 0000.0001) // Parameter file "data.gmredi"
(PID.TID 0000.0001) // =======================================================
(PID.TID 0000.0001) ># GM+Redi package parameters:
(PID.TID 0000.0001) >#     GM_Small_Number  :: epsilon used in computing the slope
(PID.TID 0000.0001) >#     GM_slopeSqCutoff :: slope^2 cut-off value
(PID.TID 0000.0001) >
(PID.TID 0000.0001) >#-from MOM :
(PID.TID 0000.0001) ># GM_background_K:      G & Mc.W  diffusion coefficient
(PID.TID 0000.0001) ># GM_maxSlope    :      max slope of isopycnals
(PID.TID 0000.0001) ># GM_Scrit       :      transition for scaling diffusion coefficient
(PID.TID 0000.0001) ># GM_Sd          :      half width scaling for diffusion coefficient
(PID.TID 0000.0001) ># GM_taper_scheme:      slope clipping or one of the tapering schemes
(PID.TID 0000.0001) ># GM_Kmin_horiz  :      horizontal diffusion minimum value
(PID.TID 0000.0001) >
(PID.TID 0000.0001) >#-Option parameters (needs to "define" options in GMREDI_OPTIONS.h")
(PID.TID 0000.0001) ># GM_isopycK     :      isopycnal diffusion coefficient
(PID.TID 0000.0001) >(default=GM_background_K)
(PID.TID 0000.0001) ># GM_AdvForm     :      turn on GM Advective form       (default=Skew flux
(PID.TID 0000.0001) >form)
(PID.TID 0000.0001) >
(PID.TID 0000.0001) > &GM_PARM01
(PID.TID 0000.0001) >  GM_Small_Number    = 1.D-20,
(PID.TID 0000.0001) >  GM_slopeSqCutoff   = 1.D+08,
(PID.TID 0000.0001) >  GM_AdvForm         = .FALSE.,
(PID.TID 0000.0001) >  GM_isopycK         = 1.D+3,
(PID.TID 0000.0001) >  GM_background_K    = 1.D+3,
(PID.TID 0000.0001) >  GM_maxSlope        = 1.D-2,
(PID.TID 0000.0001) >  GM_taper_scheme    = 'dm95',
(PID.TID 0000.0001) >  GM_Kmin_horiz      = 50.,
(PID.TID 0000.0001) >  GM_Scrit           = 4.D-3,
(PID.TID 0000.0001) >  GM_Sd              = 1.D-3,
(PID.TID 0000.0001) >#
(PID.TID 0000.0001) >###  GM_Visbeck_alpha   = 1.5D-2,
(PID.TID 0000.0001) >###  GM_Visbeck_alpha   = 0.D0,
(PID.TID 0000.0001) >###  GM_Visbeck_length  = 2.D+5,
(PID.TID 0000.0001) >###  GM_Visbeck_depth   = 1.D+3,
(PID.TID 0000.0001) >###  GM_Visbeck_maxval_K= 2.5D+3,
(PID.TID 0000.0001) > /
(PID.TID 0000.0001) >
(PID.TID 0000.0001) 
(PID.TID 0000.0001)  GM_READPARMS: finished reading data.gmredi
(PID.TID 0000.0001)  PTRACERS_READPARMS: opening data.ptracers
(PID.TID 0000.0001)  OPEN_COPY_DATA_FILE: opening file data.ptracers
(PID.TID 0000.0001) // =======================================================
(PID.TID 0000.0001) // Removing comments from "data.ptracers"
(PID.TID 0000.0001) // =======================================================
(PID.TID 0000.0001)    1  &PTRACERS_PARM01
(PID.TID 0000.0001)    2  PTRACERS_numInUse=35,
(PID.TID 0000.0001)    3  PTRACERS_Iter0= 0,
(PID.TID 0000.0001)    4  PTRACERS_advScheme=35*33,
(PID.TID 0000.0001)    5  PTRACERS_diffKh=35*0.E3,
(PID.TID 0000.0001)    6  PTRACERS_diffKr=35*1.E-5,
(PID.TID 0000.0001)    7  PTRACERS_useGMRedi=35*.TRUE.,
(PID.TID 0000.0001)    8  PTRACERS_useKPP=35*.TRUE.,
(PID.TID 0000.0001)    9  PTRACERS_names(1)= 'DIC',
(PID.TID 0000.0001)   10  PTRACERS_names(2)= 'NH4',
(PID.TID 0000.0001)   11  PTRACERS_names(3)= 'NO2',
(PID.TID 0000.0001)   12  PTRACERS_names(4)= 'NO3',
(PID.TID 0000.0001)   13  PTRACERS_names(5)= 'PO4',
(PID.TID 0000.0001)   14  PTRACERS_names(6)= 'SiO2',
(PID.TID 0000.0001)   15  PTRACERS_names(7)= 'FeT',
(PID.TID 0000.0001)   16  PTRACERS_names(8)= 'DOC',
(PID.TID 0000.0001)   17  PTRACERS_names(9)= 'DON',
(PID.TID 0000.0001)   18  PTRACERS_names(10)= 'DOP',
(PID.TID 0000.0001)   19  PTRACERS_names(11)= 'DOFe',
(PID.TID 0000.0001)   20  PTRACERS_names(12)= 'POC',
(PID.TID 0000.0001)   21  PTRACERS_names(13)= 'PON',
(PID.TID 0000.0001)   22  PTRACERS_names(14)= 'POP',
(PID.TID 0000.0001)   23  PTRACERS_names(15)= 'POSi',
(PID.TID 0000.0001)   24  PTRACERS_names(16)= 'POFe',
(PID.TID 0000.0001)   25  PTRACERS_names(17)= 'PIC',
(PID.TID 0000.0001)   26  PTRACERS_names(18)= 'ALK',
(PID.TID 0000.0001)   27  PTRACERS_names(19)= 'O2',
(PID.TID 0000.0001)   28  PTRACERS_names(20)= 'c01',
(PID.TID 0000.0001)   29  PTRACERS_names(21)= 'c02',
(PID.TID 0000.0001)   30  PTRACERS_names(22)= 'c03',
(PID.TID 0000.0001)   31  PTRACERS_names(23)= 'c04',
(PID.TID 0000.0001)   32  PTRACERS_names(24)= 'c05',
(PID.TID 0000.0001)   33  PTRACERS_names(25)= 'c06',
(PID.TID 0000.0001)   34  PTRACERS_names(26)= 'c07',
(PID.TID 0000.0001)   35  PTRACERS_names(27)= 'c08',
(PID.TID 0000.0001)   36  PTRACERS_names(28)= 'c09',
(PID.TID 0000.0001)   37  PTRACERS_names(29)= 'c10',
(PID.TID 0000.0001)   38  PTRACERS_names(30)= 'Chl1',
(PID.TID 0000.0001)   39  PTRACERS_names(31)= 'Chl2',
(PID.TID 0000.0001)   40  PTRACERS_names(32)= 'Chl3',
(PID.TID 0000.0001)   41  PTRACERS_names(33)= 'Chl4',
(PID.TID 0000.0001)   42  PTRACERS_names(34)= 'Chl5',
(PID.TID 0000.0001)   43  PTRACERS_names(35)= 'Chl6',
(PID.TID 0000.0001)   44  PTRACERS_long_names(20)= 'Diatom01',
(PID.TID 0000.0001)   45  PTRACERS_long_names(21)= 'Euk01',
(PID.TID 0000.0001)   46  PTRACERS_long_names(22)= 'Syn01',
(PID.TID 0000.0001)   47  PTRACERS_long_names(23)= 'Pro01',
(PID.TID 0000.0001)   48  PTRACERS_long_names(24)= 'Tricho01',
(PID.TID 0000.0001)   49  PTRACERS_long_names(25)= 'Cocco01',
(PID.TID 0000.0001)   50  PTRACERS_long_names(26)= 'Zoo01',
(PID.TID 0000.0001)   51  PTRACERS_long_names(27)= 'Zoo02',
(PID.TID 0000.0001)   52  PTRACERS_long_names(28)= 'Zoo03',
(PID.TID 0000.0001)   53  PTRACERS_long_names(29)= 'Zoo04',
(PID.TID 0000.0001)   54  PTRACERS_units(1)='mmol C/m^3',
(PID.TID 0000.0001)   55  PTRACERS_units(2)='mmol N/m^3',
(PID.TID 0000.0001)   56  PTRACERS_units(3)='mmol N/m^3',
(PID.TID 0000.0001)   57  PTRACERS_units(4)='mmol N/m^3',
(PID.TID 0000.0001)   58  PTRACERS_units(5)='mmol P/m^3',
(PID.TID 0000.0001)   59  PTRACERS_units(6)='mmol Si/m^3',
(PID.TID 0000.0001)   60  PTRACERS_units(7)='mmol Fe/m^3',
(PID.TID 0000.0001)   61  PTRACERS_units(8)='mmol C/m^3',
(PID.TID 0000.0001)   62  PTRACERS_units(9)='mmol N/m^3',
(PID.TID 0000.0001)   63  PTRACERS_units(10)='mmol P/m^3',
(PID.TID 0000.0001)   64  PTRACERS_units(11)='mmol Fe/m^3',
(PID.TID 0000.0001)   65  PTRACERS_units(12)='mmol C/m^3',
(PID.TID 0000.0001)   66  PTRACERS_units(13)='mmol N/m^3',
(PID.TID 0000.0001)   67  PTRACERS_units(14)='mmol P/m^3',
(PID.TID 0000.0001)   68  PTRACERS_units(15)='mmol Si/m^3',
(PID.TID 0000.0001)   69  PTRACERS_units(16)='mmol Fe/m^3',
(PID.TID 0000.0001)   70  PTRACERS_units(17)='mmol C/m^3',
(PID.TID 0000.0001)   71  PTRACERS_units(18)='mmol eq/m^3',
(PID.TID 0000.0001)   72  PTRACERS_units(19)='mmol O/m^3',
(PID.TID 0000.0001)   73  PTRACERS_units(20:29)=10*'mmol C/m^3',
(PID.TID 0000.0001)   74  PTRACERS_units(30:35)='mg/m^3',
(PID.TID 0000.0001)   75  PTRACERS_initialFile(1)='../../../data/eccov3/glodap_tco2_ann-3d.bin',
(PID.TID 0000.0001)   76  PTRACERS_initialFile(2)='../../../data/DARWIN_ECCO_run17/nh4_y2000.data',
(PID.TID 0000.0001)   77  PTRACERS_initialFile(3)='../../../data/DARWIN_ECCO_run17/no2_y2000.data',
(PID.TID 0000.0001)   78  PTRACERS_initialFile(4)='../../../data/eccov3/lev01_nitrate_ann-3d.bin',
(PID.TID 0000.0001)   79  PTRACERS_initialFile(5)='../../../data/eccov3/lev01_phosphate_ann-3d.bin',
(PID.TID 0000.0001)   80  PTRACERS_initialFile(6)='../../../data/eccov3/lev01_silicate_ann-3d.bin ',
(PID.TID 0000.0001)   81  PTRACERS_initialFile(7)='../../../data/DARWIN_ECCO_run17/fet_y2000.data',
(PID.TID 0000.0001)   82  PTRACERS_initialFile(8)='../../../data/DARWIN_ECCO_run17/doc_y2000.data',
(PID.TID 0000.0001)   83  PTRACERS_initialFile(9)='../../../data/DARWIN_ECCO_run17/don_y2000.data',
(PID.TID 0000.0001)   84  PTRACERS_initialFile(10)='../../../data/DARWIN_ECCO_run17/dop_y2000.data',
(PID.TID 0000.0001)   85  PTRACERS_initialFile(11)='../../../data/DARWIN_ECCO_run17/dofe_y2000.data',
(PID.TID 0000.0001)   86  PTRACERS_initialFile(12)='../../../data/DARWIN_ECCO_run17/poc_y2000.data',
(PID.TID 0000.0001)   87  PTRACERS_initialFile(13)='../../../data/DARWIN_ECCO_run17/pon_y2000.data',
(PID.TID 0000.0001)   88  PTRACERS_initialFile(14)='../../../data/DARWIN_ECCO_run17/pop_y2000.data',
(PID.TID 0000.0001)   89  PTRACERS_initialFile(15)='../../../data/DARWIN_ECCO_run17/posi_y2000.data',
(PID.TID 0000.0001)   90  PTRACERS_initialFile(16)='../../../data/DARWIN_ECCO_run17/pofe_y2000.data',
(PID.TID 0000.0001)   91  PTRACERS_initialFile(17)='../../../data/DARWIN_ECCO_run17/pic_y2000.data',
(PID.TID 0000.0001)   92  PTRACERS_initialFile(18)='../../../data/eccov3/glodap_alk_ann-3d.bin',
(PID.TID 0000.0001)   93  PTRACERS_initialFile(19)='../../../data/eccov3/lev01_oxygen_micromolar_ann-3d.bin',
(PID.TID 0000.0001)   94  PTRACERS_initialFile(20)='../../../data/DARWIN_ECCO_run17/phy_6species_x120_y2000.data',
(PID.TID 0000.0001)   95  PTRACERS_initialFile(21)='../../../data/DARWIN_ECCO_run17/phy_6species_x120_y2000.data',
(PID.TID 0000.0001)   96  PTRACERS_initialFile(22)='../../../data/DARWIN_ECCO_run17/phy_6species_x120_y2000.data',
(PID.TID 0000.0001)   97  PTRACERS_initialFile(23)='../../../data/DARWIN_ECCO_run17/phy_6species_x120_y2000.data',
(PID.TID 0000.0001)   98  PTRACERS_initialFile(24)='../../../data/DARWIN_ECCO_run17/phy_6species_x120_y2000.data',
(PID.TID 0000.0001)   99  PTRACERS_initialFile(25)='../../../data/DARWIN_ECCO_run17/phy_6species_x120_y2000.data',
(PID.TID 0000.0001)  100  PTRACERS_initialFile(26:29)=4*'../../../data/DARWIN_ECCO_run17/zoop_x120_y2000.data',
(PID.TID 0000.0001)  101  PTRACERS_initialFile(30:35)=6*' ',
(PID.TID 0000.0001)  102  /
(PID.TID 0000.0001) // =======================================================
(PID.TID 0000.0001) // Parameter file "data.ptracers"
(PID.TID 0000.0001) // =======================================================
(PID.TID 0000.0001) > &PTRACERS_PARM01
(PID.TID 0000.0001) > PTRACERS_numInUse=35,
(PID.TID 0000.0001) > PTRACERS_Iter0= 0,
(PID.TID 0000.0001) >#
(PID.TID 0000.0001) > PTRACERS_advScheme=35*33,
(PID.TID 0000.0001) > PTRACERS_diffKh=35*0.E3,
(PID.TID 0000.0001) > PTRACERS_diffKr=35*1.E-5,
(PID.TID 0000.0001) > PTRACERS_useGMRedi=35*.TRUE.,
(PID.TID 0000.0001) > PTRACERS_useKPP=35*.TRUE.,
(PID.TID 0000.0001) >#
(PID.TID 0000.0001) > PTRACERS_names(1)= 'DIC',
(PID.TID 0000.0001) > PTRACERS_names(2)= 'NH4',
(PID.TID 0000.0001) > PTRACERS_names(3)= 'NO2',
(PID.TID 0000.0001) > PTRACERS_names(4)= 'NO3',
(PID.TID 0000.0001) > PTRACERS_names(5)= 'PO4',
(PID.TID 0000.0001) > PTRACERS_names(6)= 'SiO2',
(PID.TID 0000.0001) > PTRACERS_names(7)= 'FeT',
(PID.TID 0000.0001) > PTRACERS_names(8)= 'DOC',
(PID.TID 0000.0001) > PTRACERS_names(9)= 'DON',
(PID.TID 0000.0001) > PTRACERS_names(10)= 'DOP',
(PID.TID 0000.0001) > PTRACERS_names(11)= 'DOFe',
(PID.TID 0000.0001) > PTRACERS_names(12)= 'POC',
(PID.TID 0000.0001) > PTRACERS_names(13)= 'PON',
(PID.TID 0000.0001) > PTRACERS_names(14)= 'POP',
(PID.TID 0000.0001) > PTRACERS_names(15)= 'POSi',
(PID.TID 0000.0001) > PTRACERS_names(16)= 'POFe',
(PID.TID 0000.0001) > PTRACERS_names(17)= 'PIC',
(PID.TID 0000.0001) > PTRACERS_names(18)= 'ALK',
(PID.TID 0000.0001) > PTRACERS_names(19)= 'O2',
(PID.TID 0000.0001) > PTRACERS_names(20)= 'c01',
(PID.TID 0000.0001) > PTRACERS_names(21)= 'c02',
(PID.TID 0000.0001) > PTRACERS_names(22)= 'c03',
(PID.TID 0000.0001) > PTRACERS_names(23)= 'c04',
(PID.TID 0000.0001) > PTRACERS_names(24)= 'c05',
(PID.TID 0000.0001) > PTRACERS_names(25)= 'c06',
(PID.TID 0000.0001) > PTRACERS_names(26)= 'c07',
(PID.TID 0000.0001) > PTRACERS_names(27)= 'c08',
(PID.TID 0000.0001) > PTRACERS_names(28)= 'c09',
(PID.TID 0000.0001) > PTRACERS_names(29)= 'c10',
(PID.TID 0000.0001) > PTRACERS_names(30)= 'Chl1',
(PID.TID 0000.0001) > PTRACERS_names(31)= 'Chl2',
(PID.TID 0000.0001) > PTRACERS_names(32)= 'Chl3',
(PID.TID 0000.0001) > PTRACERS_names(33)= 'Chl4',
(PID.TID 0000.0001) > PTRACERS_names(34)= 'Chl5',
(PID.TID 0000.0001) > PTRACERS_names(35)= 'Chl6',
(PID.TID 0000.0001) > PTRACERS_long_names(20)= 'Diatom01',
(PID.TID 0000.0001) > PTRACERS_long_names(21)= 'Euk01',
(PID.TID 0000.0001) > PTRACERS_long_names(22)= 'Syn01',
(PID.TID 0000.0001) > PTRACERS_long_names(23)= 'Pro01',
(PID.TID 0000.0001) > PTRACERS_long_names(24)= 'Tricho01',
(PID.TID 0000.0001) > PTRACERS_long_names(25)= 'Cocco01',
(PID.TID 0000.0001) > PTRACERS_long_names(26)= 'Zoo01',
(PID.TID 0000.0001) > PTRACERS_long_names(27)= 'Zoo02',
(PID.TID 0000.0001) > PTRACERS_long_names(28)= 'Zoo03',
(PID.TID 0000.0001) > PTRACERS_long_names(29)= 'Zoo04',
(PID.TID 0000.0001) > PTRACERS_units(1)='mmol C/m^3',
(PID.TID 0000.0001) > PTRACERS_units(2)='mmol N/m^3',
(PID.TID 0000.0001) > PTRACERS_units(3)='mmol N/m^3',
(PID.TID 0000.0001) > PTRACERS_units(4)='mmol N/m^3',
(PID.TID 0000.0001) > PTRACERS_units(5)='mmol P/m^3',
(PID.TID 0000.0001) > PTRACERS_units(6)='mmol Si/m^3',
(PID.TID 0000.0001) > PTRACERS_units(7)='mmol Fe/m^3',
(PID.TID 0000.0001) > PTRACERS_units(8)='mmol C/m^3',
(PID.TID 0000.0001) > PTRACERS_units(9)='mmol N/m^3',
(PID.TID 0000.0001) > PTRACERS_units(10)='mmol P/m^3',
(PID.TID 0000.0001) > PTRACERS_units(11)='mmol Fe/m^3',
(PID.TID 0000.0001) > PTRACERS_units(12)='mmol C/m^3',
(PID.TID 0000.0001) > PTRACERS_units(13)='mmol N/m^3',
(PID.TID 0000.0001) > PTRACERS_units(14)='mmol P/m^3',
(PID.TID 0000.0001) > PTRACERS_units(15)='mmol Si/m^3',
(PID.TID 0000.0001) > PTRACERS_units(16)='mmol Fe/m^3',
(PID.TID 0000.0001) > PTRACERS_units(17)='mmol C/m^3',
(PID.TID 0000.0001) > PTRACERS_units(18)='mmol eq/m^3',
(PID.TID 0000.0001) > PTRACERS_units(19)='mmol O/m^3',
(PID.TID 0000.0001) > PTRACERS_units(20:29)=10*'mmol C/m^3',
(PID.TID 0000.0001) > PTRACERS_units(30:35)='mg/m^3',
(PID.TID 0000.0001) > PTRACERS_initialFile(1)='../../../data/eccov3/glodap_tco2_ann-3d.bin',
(PID.TID 0000.0001) > PTRACERS_initialFile(2)='../../../data/DARWIN_ECCO_run17/nh4_y2000.data',
(PID.TID 0000.0001) > PTRACERS_initialFile(3)='../../../data/DARWIN_ECCO_run17/no2_y2000.data',
(PID.TID 0000.0001) > PTRACERS_initialFile(4)='../../../data/eccov3/lev01_nitrate_ann-3d.bin',
(PID.TID 0000.0001) > PTRACERS_initialFile(5)='../../../data/eccov3/lev01_phosphate_ann-3d.bin',
(PID.TID 0000.0001) > PTRACERS_initialFile(6)='../../../data/eccov3/lev01_silicate_ann-3d.bin ',
(PID.TID 0000.0001) > PTRACERS_initialFile(7)='../../../data/DARWIN_ECCO_run17/fet_y2000.data',
(PID.TID 0000.0001) > PTRACERS_initialFile(8)='../../../data/DARWIN_ECCO_run17/doc_y2000.data',
(PID.TID 0000.0001) > PTRACERS_initialFile(9)='../../../data/DARWIN_ECCO_run17/don_y2000.data',
(PID.TID 0000.0001) > PTRACERS_initialFile(10)='../../../data/DARWIN_ECCO_run17/dop_y2000.data',
(PID.TID 0000.0001) > PTRACERS_initialFile(11)='../../../data/DARWIN_ECCO_run17/dofe_y2000.data',
(PID.TID 0000.0001) > PTRACERS_initialFile(12)='../../../data/DARWIN_ECCO_run17/poc_y2000.data',
(PID.TID 0000.0001) > PTRACERS_initialFile(13)='../../../data/DARWIN_ECCO_run17/pon_y2000.data',
(PID.TID 0000.0001) > PTRACERS_initialFile(14)='../../../data/DARWIN_ECCO_run17/pop_y2000.data',
(PID.TID 0000.0001) > PTRACERS_initialFile(15)='../../../data/DARWIN_ECCO_run17/posi_y2000.data',
(PID.TID 0000.0001) > PTRACERS_initialFile(16)='../../../data/DARWIN_ECCO_run17/pofe_y2000.data',
(PID.TID 0000.0001) > PTRACERS_initialFile(17)='../../../data/DARWIN_ECCO_run17/pic_y2000.data',
(PID.TID 0000.0001) > PTRACERS_initialFile(18)='../../../data/eccov3/glodap_alk_ann-3d.bin',
(PID.TID 0000.0001) > PTRACERS_initialFile(19)='../../../data/eccov3/lev01_oxygen_micromolar_ann-3d.bin',
(PID.TID 0000.0001) > PTRACERS_initialFile(20)='../../../data/DARWIN_ECCO_run17/phy_6species_x120_y2000.data',
(PID.TID 0000.0001) > PTRACERS_initialFile(21)='../../../data/DARWIN_ECCO_run17/phy_6species_x120_y2000.data',
(PID.TID 0000.0001) > PTRACERS_initialFile(22)='../../../data/DARWIN_ECCO_run17/phy_6species_x120_y2000.data',
(PID.TID 0000.0001) > PTRACERS_initialFile(23)='../../../data/DARWIN_ECCO_run17/phy_6species_x120_y2000.data',
(PID.TID 0000.0001) > PTRACERS_initialFile(24)='../../../data/DARWIN_ECCO_run17/phy_6species_x120_y2000.data',
(PID.TID 0000.0001) > PTRACERS_initialFile(25)='../../../data/DARWIN_ECCO_run17/phy_6species_x120_y2000.data',
(PID.TID 0000.0001) > PTRACERS_initialFile(26:29)=4*'../../../data/DARWIN_ECCO_run17/zoop_x120_y2000.data',
(PID.TID 0000.0001) > PTRACERS_initialFile(30:35)=6*' ',
(PID.TID 0000.0001) > /
(PID.TID 0000.0001) 
(PID.TID 0000.0001)  PTRACERS_READPARMS: finished reading data.ptracers
(PID.TID 0000.0001)  GCHEM_READPARMS: opening data.gchem
(PID.TID 0000.0001)  OPEN_COPY_DATA_FILE: opening file data.gchem
(PID.TID 0000.0001) // =======================================================
(PID.TID 0000.0001) // Removing comments from "data.gchem"
(PID.TID 0000.0001) // =======================================================
(PID.TID 0000.0001)    1  &GCHEM_PARM01
(PID.TID 0000.0001)    2   useGUD=.TRUE.,
(PID.TID 0000.0001)    3   nsubtime=1,
(PID.TID 0000.0001)    4  /
(PID.TID 0000.0001) // =======================================================
(PID.TID 0000.0001) // Parameter file "data.gchem"
(PID.TID 0000.0001) // =======================================================
(PID.TID 0000.0001) > &GCHEM_PARM01
(PID.TID 0000.0001) >  useGUD=.TRUE.,
(PID.TID 0000.0001) >  nsubtime=1,
(PID.TID 0000.0001) > /
(PID.TID 0000.0001) 
(PID.TID 0000.0001)  GCHEM_READPARMS: finished reading data.gchem
(PID.TID 0000.0001)  GUD_READPARMS: opening data.gud
(PID.TID 0000.0001)  OPEN_COPY_DATA_FILE: opening file data.gud
(PID.TID 0000.0001) // =======================================================
(PID.TID 0000.0001) // Removing comments from "data.gud"
(PID.TID 0000.0001) // =======================================================
(PID.TID 0000.0001)    1  &GUD_FORCING_PARAMS
(PID.TID 0000.0001)    2  gud_chlInitBalanced= T,
(PID.TID 0000.0001)    3  ironFile='../../../data/eccov3/mahowald2009_solubile_current_smooth_oce_mth-2d.bin',
(PID.TID 0000.0001)    4  ironPeriod= -12.,
(PID.TID 0000.0001)    5  gud_inscal_iron= 1000.,
(PID.TID 0000.0001)    6  PARFile='../../../data/eccov3/ecco_oasim_total_below_oneband_einm2d.bin',
(PID.TID 0000.0001)    7  PARPeriod= -12.,
(PID.TID 0000.0001)    8  gud_inscal_PAR= 11.574074074074,
(PID.TID 0000.0001)    9  windFile='../../../data/eccov3/tren_speed_mth-2d.bin',
(PID.TID 0000.0001)   10  windPeriod= -12.,
(PID.TID 0000.0001)   11  icefile = '../../../data/eccov3/SIarea.bin',
(PID.TID 0000.0001)   12  icestartdate1 = 19990101,
(PID.TID 0000.0001)   13  icestartdate2 = 120000,
(PID.TID 0000.0001)   14  iceperiod     = 86400.0,
(PID.TID 0000.0001)   15  /
(PID.TID 0000.0001)   16  &GUD_PARAMS
(PID.TID 0000.0001)   17  diaz_ini_fac= 0.1,
(PID.TID 0000.0001)   18  gud_linFSConserve= T,
(PID.TID 0000.0001)   19  gud_seed= 56,
(PID.TID 0000.0001)   20  gud_read_phos= F,
(PID.TID 0000.0001)   21  tempCoeffArr= 0.8,
(PID.TID 0000.0001)   22  PARmin= 0.1,
(PID.TID 0000.0001)   23  alpfe= 1.0,
(PID.TID 0000.0001)   24  freefemax = .1E-3,
(PID.TID 0000.0001)   25  depthfesed= 7000.,
(PID.TID 0000.0001)   26  scav_rat= 1.73611111111111111111E-7,
(PID.TID 0000.0001)   27  kdoc=  3.8580246913580247E-7,  ! 1/30day
(PID.TID 0000.0001)   28  kdop=  3.8580246913580247E-7,  ! 1/30day
(PID.TID 0000.0001)   29  kdon=  3.8580246913580247E-7,  ! 1/30day
(PID.TID 0000.0001)   30  kdofe= 3.8580246913580247E-7,  ! 1/30day
(PID.TID 0000.0001)   31  kPOC=  3.8580246913580247E-7,  ! 1/30day
(PID.TID 0000.0001)   32  kPOP=  3.8580246913580247E-7,  ! 1/30day
(PID.TID 0000.0001)   33  kPON=  3.8580246913580247E-7,  ! 1/30day
(PID.TID 0000.0001)   34  kPOFe= 3.8580246913580247E-7,  ! 1/30day
(PID.TID 0000.0001)   35  kPOSi= 7.7160493827160493E-8,  ! 1/150day
(PID.TID 0000.0001)   36  phygrazmin= 120E-10,
(PID.TID 0000.0001)   37  gud_atmos_pCO2= 278E-6,
(PID.TID 0000.0001)   38  /
(PID.TID 0000.0001)   39  &GUD_RADTRANS_PARAMS
(PID.TID 0000.0001)   40  /
(PID.TID 0000.0001)   41  &GUD_RANDOM_PARAMS
(PID.TID 0000.0001)   42  /
(PID.TID 0000.0001)   43  &GUD_TRAIT_PARAMS
(PID.TID 0000.0001)   44  grp_nplank(:)=          1, 1, 1, 1, 1, 1, 0, 4,
(PID.TID 0000.0001)   45  grp_photo(:)=           1, 1, 1, 1, 1, 1, 1, 0,
(PID.TID 0000.0001)   46  grp_pred(:)=            0, 0, 0, 0, 0, 0, 0, 1,
(PID.TID 0000.0001)   47  grp_prey(:)=            1, 1, 1, 1, 1, 1, 0, 0,
(PID.TID 0000.0001)   48  grp_hasSi(:)=           1, 0, 0, 0, 0, 0, 0, 0,
(PID.TID 0000.0001)   49  grp_hasPIC(:)=          0, 0, 0, 0, 0, 1, 0, 0,
(PID.TID 0000.0001)   50  grp_DIAZO(:)=           0, 0, 0, 0, 1, 0, 0, 0,
(PID.TID 0000.0001)   51  grp_useNH4(:)=          1, 1, 1, 1, 1, 1, 1, 0,
(PID.TID 0000.0001)   52  grp_useNO2(:)=          1, 1, 1, 1, 1, 1, 1, 0,
(PID.TID 0000.0001)   53  grp_useNO3(:)=          1, 1, 1, 1, 1, 1, 1, 0,
(PID.TID 0000.0001)   54  grp_combNO(:)=          1, 1, 1, 1, 1, 1, 1, 0,
(PID.TID 0000.0001)   55  grp_tempMort(:)=        1, 1, 1, 1, 1, 1, 1, 1,
(PID.TID 0000.0001)   56  grp_tempMort2(:)=       1, 1, 1, 1, 1, 1, 1, 1,
(PID.TID 0000.0001)   57  grp_Xmin(:)= 7*120E-20,
(PID.TID 0000.0001)   58  grp_mqyield(:)= 7*5E-5,
(PID.TID 0000.0001)   59  grp_chl2cmax(:)= 7*.3,
(PID.TID 0000.0001)   60  grp_acclimtimescl(:)= 7*.5,
(PID.TID 0000.0001)   61  grp_acclimtimescl_denom(:)= 7*86400.,
(PID.TID 0000.0001)   62  logvolbase= -.9465,
(PID.TID 0000.0001)   63  logvolinc= .513,
(PID.TID 0000.0001)   64  logvol0ind(:)= 8, 8, 3, 1, 8, 6, 1, 3,
(PID.TID 0000.0001)   65  a_biosink(:)= 7*6.951416635391563E-7, 0.,  ! .05*dm**.85
(PID.TID 0000.0001)   66  b_biosink(:)= 7*.2833333333333333, 0.,
(PID.TID 0000.0001)   67  a_vmax_DIC(1)= 7.5,
(PID.TID 0000.0001)   68  a_vmax_DIC(2)= 2.0,
(PID.TID 0000.0001)   69  a_vmax_DIC(3)= 0.6,
(PID.TID 0000.0001)   70  a_vmax_DIC(4)= 0.6,
(PID.TID 0000.0001)   71  a_vmax_DIC(5)= 0.9,
(PID.TID 0000.0001)   72  a_vmax_DIC(6)= 3.0,
(PID.TID 0000.0001)   73  a_vmax_DIC(7)= 0.0,
(PID.TID 0000.0001)   74  a_vmax_DIC_denom(:)= 7*86400.,
(PID.TID 0000.0001)   75  b_vmax_DIC(:)= -0.15, -0.15, -0.15, 0.07, -0.15, -0.15, 0.07, 0.,
(PID.TID 0000.0001)   76  gud_effective_ksat= T,
(PID.TID 0000.0001)   77  grp_ExportFracMort(:)= .4, .4, .1, .1, .4, .4, .1, .6
(PID.TID 0000.0001)   78  grp_ExportFracMort2(:)= .4, .4, .1, .1, .4, .4, .1, .6
(PID.TID 0000.0001)   79  grp_ExportFracPreyPred(1:7,8)= 7*.8,
(PID.TID 0000.0001)   80  grp_R_ChlC(8)= 0.,
(PID.TID 0000.0001)   81  a_graz(8)= 2.6213047103166739E-05,  ! 2/day
(PID.TID 0000.0001)   82  b_graz(8)= 0.,
(PID.TID 0000.0001)   83  grp_mort(:)= 7*1.6534391534391533e-06, 2.3148148148148148e-07,  ! 1/7days, 1/50days
(PID.TID 0000.0001)   84  grp_mort2(:)= 7*0., 9.259259259259258e-07,  ! 16*.6/120/day
(PID.TID 0000.0001)   85  grp_tempcoeff2= 7*.0003,
(PID.TID 0000.0001)   86  grp_R_PC(:)= 8*0.008333333333333333,
(PID.TID 0000.0001)   87  grp_R_FeC(:)= 4*0.008333333333333333E-3, 0.03333333333333333E-3, 3*0.008333333333333333E-3,
(PID.TID 0000.0001)   88  grp_R_NC(:)= 4*0.13333333333333333, 0.3333333333333333, 3*0.13333333333333333,
(PID.TID 0000.0001)   89  grp_R_SiC(:)= 0.13333333333333333, 7*0.,
(PID.TID 0000.0001)   90  grp_R_PICPOC(:)= 5*0., .8, 2*0.,
(PID.TID 0000.0001)   91  a_kg(8)= 6.,
(PID.TID 0000.0001)   92  b_kg(8)= 0.,
(PID.TID 0000.0001)   93  /
(PID.TID 0000.0001) // =======================================================
(PID.TID 0000.0001) // Parameter file "data.gud"
(PID.TID 0000.0001) // =======================================================
(PID.TID 0000.0001) >########################
(PID.TID 0000.0001) > &GUD_FORCING_PARAMS
(PID.TID 0000.0001) > gud_chlInitBalanced= T,
(PID.TID 0000.0001) > ironFile='../../../data/eccov3/mahowald2009_solubile_current_smooth_oce_mth-2d.bin',
(PID.TID 0000.0001) > ironPeriod= -12.,
(PID.TID 0000.0001) > gud_inscal_iron= 1000.,
(PID.TID 0000.0001) > PARFile='../../../data/eccov3/ecco_oasim_total_below_oneband_einm2d.bin',
(PID.TID 0000.0001) > PARPeriod= -12.,
(PID.TID 0000.0001) > gud_inscal_PAR= 11.574074074074,
(PID.TID 0000.0001) > windFile='../../../data/eccov3/tren_speed_mth-2d.bin',
(PID.TID 0000.0001) > windPeriod= -12.,
(PID.TID 0000.0001) > icefile = '../../../data/eccov3/SIarea.bin',
(PID.TID 0000.0001) > icestartdate1 = 19990101,
(PID.TID 0000.0001) > icestartdate2 = 120000,
(PID.TID 0000.0001) > iceperiod     = 86400.0,
(PID.TID 0000.0001) > /
(PID.TID 0000.0001) >########################
(PID.TID 0000.0001) > &GUD_PARAMS
(PID.TID 0000.0001) > diaz_ini_fac= 0.1,
(PID.TID 0000.0001) > gud_linFSConserve= T,
(PID.TID 0000.0001) > gud_seed= 56,
(PID.TID 0000.0001) > gud_read_phos= F,
(PID.TID 0000.0001) > tempCoeffArr= 0.8,
(PID.TID 0000.0001) > PARmin= 0.1,
(PID.TID 0000.0001) > alpfe= 1.0,
(PID.TID 0000.0001) > freefemax = .1E-3,
(PID.TID 0000.0001) > depthfesed= 7000.,
(PID.TID 0000.0001) > scav_rat= 1.73611111111111111111E-7,
(PID.TID 0000.0001) > kdoc=  3.8580246913580247E-7,  ! 1/30day
(PID.TID 0000.0001) > kdop=  3.8580246913580247E-7,  ! 1/30day
(PID.TID 0000.0001) > kdon=  3.8580246913580247E-7,  ! 1/30day
(PID.TID 0000.0001) > kdofe= 3.8580246913580247E-7,  ! 1/30day
(PID.TID 0000.0001) > kPOC=  3.8580246913580247E-7,  ! 1/30day
(PID.TID 0000.0001) > kPOP=  3.8580246913580247E-7,  ! 1/30day
(PID.TID 0000.0001) > kPON=  3.8580246913580247E-7,  ! 1/30day
(PID.TID 0000.0001) > kPOFe= 3.8580246913580247E-7,  ! 1/30day
(PID.TID 0000.0001) > kPOSi= 7.7160493827160493E-8,  ! 1/150day
(PID.TID 0000.0001) > phygrazmin= 120E-10,
(PID.TID 0000.0001) > gud_atmos_pCO2= 278E-6,
(PID.TID 0000.0001) > /
(PID.TID 0000.0001) >########################
(PID.TID 0000.0001) > &GUD_RADTRANS_PARAMS
(PID.TID 0000.0001) > /
(PID.TID 0000.0001) >########################
(PID.TID 0000.0001) > &GUD_RANDOM_PARAMS
(PID.TID 0000.0001) > /
(PID.TID 0000.0001) >########################
(PID.TID 0000.0001) > &GUD_TRAIT_PARAMS
(PID.TID 0000.0001) >#                        D  l  s  P  T  C  S  Z
(PID.TID 0000.0001) > grp_nplank(:)=          1, 1, 1, 1, 1, 1, 0, 4,
(PID.TID 0000.0001) > grp_photo(:)=           1, 1, 1, 1, 1, 1, 1, 0,
(PID.TID 0000.0001) > grp_pred(:)=            0, 0, 0, 0, 0, 0, 0, 1,
(PID.TID 0000.0001) > grp_prey(:)=            1, 1, 1, 1, 1, 1, 0, 0,
(PID.TID 0000.0001) > grp_hasSi(:)=           1, 0, 0, 0, 0, 0, 0, 0,
(PID.TID 0000.0001) > grp_hasPIC(:)=          0, 0, 0, 0, 0, 1, 0, 0,
(PID.TID 0000.0001) > grp_DIAZO(:)=           0, 0, 0, 0, 1, 0, 0, 0,
(PID.TID 0000.0001) > grp_useNH4(:)=          1, 1, 1, 1, 1, 1, 1, 0,
(PID.TID 0000.0001) > grp_useNO2(:)=          1, 1, 1, 1, 1, 1, 1, 0,
(PID.TID 0000.0001) > grp_useNO3(:)=          1, 1, 1, 1, 1, 1, 1, 0,
(PID.TID 0000.0001) > grp_combNO(:)=          1, 1, 1, 1, 1, 1, 1, 0,
(PID.TID 0000.0001) > grp_tempMort(:)=        1, 1, 1, 1, 1, 1, 1, 1,
(PID.TID 0000.0001) > grp_tempMort2(:)=       1, 1, 1, 1, 1, 1, 1, 1,
(PID.TID 0000.0001) > grp_Xmin(:)= 7*120E-20,
(PID.TID 0000.0001) > grp_mqyield(:)= 7*5E-5,
(PID.TID 0000.0001) > grp_chl2cmax(:)= 7*.3,
(PID.TID 0000.0001) > grp_acclimtimescl(:)= 7*.5,
(PID.TID 0000.0001) > grp_acclimtimescl_denom(:)= 7*86400.,
(PID.TID 0000.0001) > logvolbase= -.9465,
(PID.TID 0000.0001) > logvolinc= .513,
(PID.TID 0000.0001) > logvol0ind(:)= 8, 8, 3, 1, 8, 6, 1, 3,
(PID.TID 0000.0001) ># biovolfac(:)= 7*3.2583670100200877, 1.,
(PID.TID 0000.0001) > a_biosink(:)= 7*6.951416635391563E-7, 0.,  ! .05*dm**.85
(PID.TID 0000.0001) > b_biosink(:)= 7*.2833333333333333, 0.,
(PID.TID 0000.0001) > a_vmax_DIC(1)= 7.5,
(PID.TID 0000.0001) > a_vmax_DIC(2)= 2.0,
(PID.TID 0000.0001) > a_vmax_DIC(3)= 0.6,
(PID.TID 0000.0001) > a_vmax_DIC(4)= 0.6,
(PID.TID 0000.0001) > a_vmax_DIC(5)= 0.9,
(PID.TID 0000.0001) > a_vmax_DIC(6)= 3.0,
(PID.TID 0000.0001) > a_vmax_DIC(7)= 0.0,
(PID.TID 0000.0001) > a_vmax_DIC_denom(:)= 7*86400.,
(PID.TID 0000.0001) > b_vmax_DIC(:)= -0.15, -0.15, -0.15, 0.07, -0.15, -0.15, 0.07, 0.,
(PID.TID 0000.0001) >#
(PID.TID 0000.0001) > gud_effective_ksat= T,
(PID.TID 0000.0001) >#
(PID.TID 0000.0001) > grp_ExportFracMort(:)= .4, .4, .1, .1, .4, .4, .1, .6
(PID.TID 0000.0001) > grp_ExportFracMort2(:)= .4, .4, .1, .1, .4, .4, .1, .6
(PID.TID 0000.0001) > grp_ExportFracPreyPred(1:7,8)= 7*.8,
(PID.TID 0000.0001) > grp_R_ChlC(8)= 0.,
(PID.TID 0000.0001) > a_graz(8)= 2.6213047103166739E-05,  ! 2/day
(PID.TID 0000.0001) > b_graz(8)= 0.,
(PID.TID 0000.0001) >#
(PID.TID 0000.0001) > grp_mort(:)= 7*1.6534391534391533e-06, 2.3148148148148148e-07,  ! 1/7days, 1/50days
(PID.TID 0000.0001) > grp_mort2(:)= 7*0., 9.259259259259258e-07,  ! 16*.6/120/day
(PID.TID 0000.0001) > grp_tempcoeff2= 7*.0003,
(PID.TID 0000.0001) > grp_R_PC(:)= 8*0.008333333333333333,
(PID.TID 0000.0001) > grp_R_FeC(:)= 4*0.008333333333333333E-3, 0.03333333333333333E-3, 3*0.008333333333333333E-3,
(PID.TID 0000.0001) > grp_R_NC(:)= 4*0.13333333333333333, 0.3333333333333333, 3*0.13333333333333333,
(PID.TID 0000.0001) > grp_R_SiC(:)= 0.13333333333333333, 7*0.,
(PID.TID 0000.0001) > grp_R_PICPOC(:)= 5*0., .8, 2*0.,
(PID.TID 0000.0001) > a_kg(8)= 6.,
(PID.TID 0000.0001) > b_kg(8)= 0.,
(PID.TID 0000.0001) > /
(PID.TID 0000.0001) 
(PID.TID 0000.0001)  ===================================
(PID.TID 0000.0001)  OFFLINE_READPARMS: opening data.off
(PID.TID 0000.0001)  OPEN_COPY_DATA_FILE: opening file data.off
(PID.TID 0000.0001) // =======================================================
(PID.TID 0000.0001) // Removing comments from "data.off"
(PID.TID 0000.0001) // =======================================================
(PID.TID 0000.0001)    1  &OFFLINE_PARM01
(PID.TID 0000.0001)    2   UvelFile= '/nobackup1/stephdut/ECCO_Iter3.73daily/DDuvel/DDuvel',
(PID.TID 0000.0001)    3   VvelFile= '/nobackup1/stephdut/ECCO_Iter3.73daily/DDvvel/DDvvel',
(PID.TID 0000.0001)    4   WvelFile= '/nobackup1/stephdut/ECCO_Iter3.73daily/DDwvel/DDwvel',
(PID.TID 0000.0001)    5   GMwxFile= '/nobackup1/stephdut/ECCO_Iter3.73daily/DGMkwx/DGMkwx',
(PID.TID 0000.0001)    6   GMwyFile= '/nobackup1/stephdut/ECCO_Iter3.73daily/DGMkwy/DGMkwy',
(PID.TID 0000.0001)    7   GMwzFile= '/nobackup1/stephdut/ECCO_Iter3.73daily/DGMkwz/DGMkwz',
(PID.TID 0000.0001)    8   SaltFile= '/nobackup1/stephdut/ECCO_Iter3.73daily/DDsalt/DDsalt',
(PID.TID 0000.0001)    9   ThetFile= '/nobackup1/stephdut/ECCO_Iter3.73daily/DDtheta/DDtheta',
(PID.TID 0000.0001)   10   SFluxFile='/nobackup1/stephdut/ECCO_Iter3.73daily/DFOSflux/DFOSflux',
(PID.TID 0000.0001)   11   KPP_DiffSFile='/nobackup1/stephdut/ECCO_Iter3.73daily/DKPPdiffs/DKPPdiffs',
(PID.TID 0000.0001)   12   KPP_ghatKFile='/nobackup1/stephdut/ECCO_Iter3.73daily/DKPPghatK/DKPPghatK',
(PID.TID 0000.0001)   13  &end
(PID.TID 0000.0001)   14
(PID.TID 0000.0001)   15  &OFFLINE_PARM02
(PID.TID 0000.0001)   16   offlineIter0=78912,
(PID.TID 0000.0001)   17   deltaToffline=3600.,
(PID.TID 0000.0001)   18   offlineForcingPeriod=86400.,
(PID.TID 0000.0001)   19   offlineForcingCycle=31104000.,
(PID.TID 0000.0001)   20  &end
(PID.TID 0000.0001)   21
(PID.TID 0000.0001) // =======================================================
(PID.TID 0000.0001) // Parameter file "data.off"
(PID.TID 0000.0001) // =======================================================
(PID.TID 0000.0001) > &OFFLINE_PARM01
(PID.TID 0000.0001) >  UvelFile= '/nobackup1/stephdut/ECCO_Iter3.73daily/DDuvel/DDuvel',
(PID.TID 0000.0001) >  VvelFile= '/nobackup1/stephdut/ECCO_Iter3.73daily/DDvvel/DDvvel',
(PID.TID 0000.0001) >  WvelFile= '/nobackup1/stephdut/ECCO_Iter3.73daily/DDwvel/DDwvel',
(PID.TID 0000.0001) >  GMwxFile= '/nobackup1/stephdut/ECCO_Iter3.73daily/DGMkwx/DGMkwx',
(PID.TID 0000.0001) >  GMwyFile= '/nobackup1/stephdut/ECCO_Iter3.73daily/DGMkwy/DGMkwy',
(PID.TID 0000.0001) >  GMwzFile= '/nobackup1/stephdut/ECCO_Iter3.73daily/DGMkwz/DGMkwz',
(PID.TID 0000.0001) ># ConvFile= 'input_off/Convtave',
(PID.TID 0000.0001) >  SaltFile= '/nobackup1/stephdut/ECCO_Iter3.73daily/DDsalt/DDsalt',
(PID.TID 0000.0001) >  ThetFile= '/nobackup1/stephdut/ECCO_Iter3.73daily/DDtheta/DDtheta',
(PID.TID 0000.0001) >  SFluxFile='/nobackup1/stephdut/ECCO_Iter3.73daily/DFOSflux/DFOSflux',
(PID.TID 0000.0001) ># HFluxFile=' ',
(PID.TID 0000.0001) >  KPP_DiffSFile='/nobackup1/stephdut/ECCO_Iter3.73daily/DKPPdiffs/DKPPdiffs',
(PID.TID 0000.0001) >  KPP_ghatKFile='/nobackup1/stephdut/ECCO_Iter3.73daily/DKPPghatK/DKPPghatK',
(PID.TID 0000.0001) >### offGen2DFile='/nobackup1/stephdut/ECCO_Iter3.73daily/SIarea/SIarea',
(PID.TID 0000.0001) > &end
(PID.TID 0000.0001) >
(PID.TID 0000.0001) > &OFFLINE_PARM02
(PID.TID 0000.0001) >  offlineIter0=78912,
(PID.TID 0000.0001) >  deltaToffline=3600.,
(PID.TID 0000.0001) >  offlineForcingPeriod=86400.,
(PID.TID 0000.0001) >  offlineForcingCycle=31104000.,
(PID.TID 0000.0001) > &end
(PID.TID 0000.0001) >
(PID.TID 0000.0001) 
(PID.TID 0000.0001)  OFFLINE_READPARMS: finished reading data.off
(PID.TID 0000.0001)  DIAGNOSTICS_READPARMS: opening data.diagnostics
(PID.TID 0000.0001)  OPEN_COPY_DATA_FILE: opening file data.diagnostics
(PID.TID 0000.0001) // =======================================================
(PID.TID 0000.0001) // Removing comments from "data.diagnostics"
(PID.TID 0000.0001) // =======================================================
(PID.TID 0000.0001)    1  &diagnostics_list
(PID.TID 0000.0001)    2   filename( 1) = '3d',
(PID.TID 0000.0001)    3   frequency(1) = 2592000.,
(PID.TID 0000.0001)    4   fields( 1,1) = 'TRAC01  ',
(PID.TID 0000.0001)    5   fields( 2,1) = 'TRAC02  ',
(PID.TID 0000.0001)    6   fields( 3,1) = 'TRAC03  ',
(PID.TID 0000.0001)    7   fields( 4,1) = 'TRAC04  ',
(PID.TID 0000.0001)    8   fields( 5,1) = 'TRAC05  ',
(PID.TID 0000.0001)    9   fields( 6,1) = 'TRAC06  ',
(PID.TID 0000.0001)   10   fields( 7,1) = 'TRAC07  ',
(PID.TID 0000.0001)   11   fields( 8,1) = 'TRAC08  ',
(PID.TID 0000.0001)   12   fields( 9,1) = 'TRAC09  ',
(PID.TID 0000.0001)   13   fields(10,1) = 'TRAC10  ',
(PID.TID 0000.0001)   14   fields(11,1) = 'TRAC11  ',
(PID.TID 0000.0001)   15   fields(12,1) = 'TRAC12  ',
(PID.TID 0000.0001)   16   fields(13,1) = 'TRAC13  ',
(PID.TID 0000.0001)   17   fields(14,1) = 'TRAC14  ',
(PID.TID 0000.0001)   18   fields(15,1) = 'TRAC15  ',
(PID.TID 0000.0001)   19   fields(16,1) = 'TRAC16  ',
(PID.TID 0000.0001)   20   fields(17,1) = 'TRAC17  ',
(PID.TID 0000.0001)   21   fields(18,1) = 'TRAC18  ',
(PID.TID 0000.0001)   22   fields(19,1) = 'TRAC19  ',
(PID.TID 0000.0001)   23   fields(20,1) = 'TRAC20  ',
(PID.TID 0000.0001)   24   fields(21,1) = 'TRAC21  ',
(PID.TID 0000.0001)   25   fields(22,1) = 'TRAC22  ',
(PID.TID 0000.0001)   26   fields(23,1) = 'TRAC23  ',
(PID.TID 0000.0001)   27   fields(24,1) = 'TRAC24  ',
(PID.TID 0000.0001)   28   fields(25,1) = 'TRAC25  ',
(PID.TID 0000.0001)   29   fields(26,1) = 'TRAC26  ',
(PID.TID 0000.0001)   30   fields(27,1) = 'TRAC27  ',
(PID.TID 0000.0001)   31   fields(28,1) = 'TRAC28  ',
(PID.TID 0000.0001)   32   fields(29,1) = 'TRAC29  ',
(PID.TID 0000.0001)   33   fields(30,1) = 'TRAC30  ',
(PID.TID 0000.0001)   34   fields(31,1) = 'TRAC31  ',
(PID.TID 0000.0001)   35   fields(32,1) = 'TRAC32  ',
(PID.TID 0000.0001)   36   fields(33,1) = 'TRAC33  ',
(PID.TID 0000.0001)   37   fields(34,1) = 'TRAC34  ',
(PID.TID 0000.0001)   38   fields(35,1) = 'TRAC35  ',
(PID.TID 0000.0001)   39   fields(36,1) = 'PAR01   ',
(PID.TID 0000.0001)   40   fields(37,1) = 'PP      ',
(PID.TID 0000.0001)   41   fields(38,1) = 'Nfix    ',
(PID.TID 0000.0001)   42   fields(39,1) = 'Denit   ',
(PID.TID 0000.0001)   43   fields(40,1) = 'pH      ',
(PID.TID 0000.0001)   44   fields(41,1) = 'pCO2    ',
(PID.TID 0000.0001)   45   filename( 2) = '2d',
(PID.TID 0000.0001)   46   frequency(2) = 2592000.,
(PID.TID 0000.0001)   47   fields( 1,2) = 'fluxCO2 ',
(PID.TID 0000.0001)   48   fields( 2,2) = 'gDICsurf',
(PID.TID 0000.0001)   49   fields( 3,2) = 'gALKsurf',
(PID.TID 0000.0001)   50   fields( 4,2) = 'gO2surf ',
(PID.TID 0000.0001)   51  /
(PID.TID 0000.0001)   52
(PID.TID 0000.0001)   53  &DIAG_STATIS_PARMS
(PID.TID 0000.0001)   54  diagst_mnc=.FALSE.,
(PID.TID 0000.0001)   55      stat_freq(1:3)= 3*10800.,
(PID.TID 0000.0001)   56     stat_phase(1:3)= 3*0.,
(PID.TID 0000.0001)   57  stat_fields(1,1)= 'PP      '
(PID.TID 0000.0001)   58  stat_fields(1,2)= 'Nfix    '
(PID.TID 0000.0001)   59  stat_fields(1,3)= 'Denit   '
(PID.TID 0000.0001)   60     stat_fname(1)= 'statsPP',
(PID.TID 0000.0001)   61     stat_fname(2)= 'statsNfix',
(PID.TID 0000.0001)   62     stat_fname(3)= 'statsDenit',
(PID.TID 0000.0001)   63  /
(PID.TID 0000.0001) // =======================================================
(PID.TID 0000.0001) // Parameter file "data.diagnostics"
(PID.TID 0000.0001) // =======================================================
(PID.TID 0000.0001) ># Gud diagnostics
(PID.TID 0000.0001) ># ==================
(PID.TID 0000.0001) ># PAR                 Photosynthetically active radiation
(PID.TID 0000.0001) ># PP                  Primary production
(PID.TID 0000.0001) ># Nfix                Nitrogen fixation
(PID.TID 0000.0001) ># Rstar01             Rstar^PO4 of Phy01
(PID.TID 0000.0001) ># Diver1              # Phy species over absolute threshold'
(PID.TID 0000.0001) ># Diver2              # Phy species over threshold for proportion of biomass'
(PID.TID 0000.0001) ># Diver3              # Phy species constituting bulk of biomass'
(PID.TID 0000.0001) ># Diver4              # Phy species over threshold for ratio to maximum species'
(PID.TID 0000.0001) >#
(PID.TID 0000.0001) > &diagnostics_list
(PID.TID 0000.0001) >#
(PID.TID 0000.0001) >  filename( 1) = '3d',
(PID.TID 0000.0001) >  frequency(1) = 2592000.,
(PID.TID 0000.0001) >  fields( 1,1) = 'TRAC01  ',
(PID.TID 0000.0001) >  fields( 2,1) = 'TRAC02  ',
(PID.TID 0000.0001) >  fields( 3,1) = 'TRAC03  ',
(PID.TID 0000.0001) >  fields( 4,1) = 'TRAC04  ',
(PID.TID 0000.0001) >  fields( 5,1) = 'TRAC05  ',
(PID.TID 0000.0001) >  fields( 6,1) = 'TRAC06  ',
(PID.TID 0000.0001) >  fields( 7,1) = 'TRAC07  ',
(PID.TID 0000.0001) >  fields( 8,1) = 'TRAC08  ',
(PID.TID 0000.0001) >  fields( 9,1) = 'TRAC09  ',
(PID.TID 0000.0001) >  fields(10,1) = 'TRAC10  ',
(PID.TID 0000.0001) >  fields(11,1) = 'TRAC11  ',
(PID.TID 0000.0001) >  fields(12,1) = 'TRAC12  ',
(PID.TID 0000.0001) >  fields(13,1) = 'TRAC13  ',
(PID.TID 0000.0001) >  fields(14,1) = 'TRAC14  ',
(PID.TID 0000.0001) >  fields(15,1) = 'TRAC15  ',
(PID.TID 0000.0001) >  fields(16,1) = 'TRAC16  ',
(PID.TID 0000.0001) >  fields(17,1) = 'TRAC17  ',
(PID.TID 0000.0001) >  fields(18,1) = 'TRAC18  ',
(PID.TID 0000.0001) >  fields(19,1) = 'TRAC19  ',
(PID.TID 0000.0001) >  fields(20,1) = 'TRAC20  ',
(PID.TID 0000.0001) >  fields(21,1) = 'TRAC21  ',
(PID.TID 0000.0001) >  fields(22,1) = 'TRAC22  ',
(PID.TID 0000.0001) >  fields(23,1) = 'TRAC23  ',
(PID.TID 0000.0001) >  fields(24,1) = 'TRAC24  ',
(PID.TID 0000.0001) >  fields(25,1) = 'TRAC25  ',
(PID.TID 0000.0001) >  fields(26,1) = 'TRAC26  ',
(PID.TID 0000.0001) >  fields(27,1) = 'TRAC27  ',
(PID.TID 0000.0001) >  fields(28,1) = 'TRAC28  ',
(PID.TID 0000.0001) >  fields(29,1) = 'TRAC29  ',
(PID.TID 0000.0001) >  fields(30,1) = 'TRAC30  ',
(PID.TID 0000.0001) >  fields(31,1) = 'TRAC31  ',
(PID.TID 0000.0001) >  fields(32,1) = 'TRAC32  ',
(PID.TID 0000.0001) >  fields(33,1) = 'TRAC33  ',
(PID.TID 0000.0001) >  fields(34,1) = 'TRAC34  ',
(PID.TID 0000.0001) >  fields(35,1) = 'TRAC35  ',
(PID.TID 0000.0001) >  fields(36,1) = 'PAR01   ',
(PID.TID 0000.0001) >  fields(37,1) = 'PP      ',
(PID.TID 0000.0001) >  fields(38,1) = 'Nfix    ',
(PID.TID 0000.0001) >  fields(39,1) = 'Denit   ',
(PID.TID 0000.0001) >  fields(40,1) = 'pH      ',
(PID.TID 0000.0001) >  fields(41,1) = 'pCO2    ',
(PID.TID 0000.0001) >#
(PID.TID 0000.0001) >  filename( 2) = '2d',
(PID.TID 0000.0001) >  frequency(2) = 2592000.,
(PID.TID 0000.0001) >  fields( 1,2) = 'fluxCO2 ',
(PID.TID 0000.0001) >  fields( 2,2) = 'gDICsurf',
(PID.TID 0000.0001) >  fields( 3,2) = 'gALKsurf',
(PID.TID 0000.0001) >  fields( 4,2) = 'gO2surf ',
(PID.TID 0000.0001) >#
(PID.TID 0000.0001) > /
(PID.TID 0000.0001) >
(PID.TID 0000.0001) ># Parameter for Diagnostics of per level statistics:
(PID.TID 0000.0001) >#-----------------
(PID.TID 0000.0001) ># for each output-stream:
(PID.TID 0000.0001) >#  stat_fname(n) : prefix of the output file name (only 8.c long) for
(PID.TID 0000.0001) >#outp.stream n
(PID.TID 0000.0001) >#  stat_freq(n):< 0 : write snap-shot output every |stat_freq| seconds
(PID.TID 0000.0001) >#               > 0 : write time-average output every stat_freq seconds
(PID.TID 0000.0001) >#  stat_phase(n)    : write at time = stat_phase + multiple of |stat_freq|
(PID.TID 0000.0001) >#  stat_region(:,n) : list of "regions" (default: 1 region only=global)
(PID.TID 0000.0001) >#  stat_fields(:,n) : list of diagnostics fields (8.c) (see
(PID.TID 0000.0001) >#"available_diagnostics.log"
(PID.TID 0000.0001) >#                 file for the list of all available diag. in this particular
(PID.TID 0000.0001) >#config)
(PID.TID 0000.0001) >#-----------------
(PID.TID 0000.0001) > &DIAG_STATIS_PARMS
(PID.TID 0000.0001) > diagst_mnc=.FALSE.,
(PID.TID 0000.0001) >     stat_freq(1:3)= 3*10800.,
(PID.TID 0000.0001) >    stat_phase(1:3)= 3*0.,
(PID.TID 0000.0001) > stat_fields(1,1)= 'PP      '
(PID.TID 0000.0001) > stat_fields(1,2)= 'Nfix    '
(PID.TID 0000.0001) > stat_fields(1,3)= 'Denit   '
(PID.TID 0000.0001) >    stat_fname(1)= 'statsPP',
(PID.TID 0000.0001) >    stat_fname(2)= 'statsNfix',
(PID.TID 0000.0001) >    stat_fname(3)= 'statsDenit',
(PID.TID 0000.0001) > /
(PID.TID 0000.0001) 
(PID.TID 0000.0001) S/R DIAGNOSTICS_READPARMS, read namelist "diagnostics_list": start
(PID.TID 0000.0001) S/R DIAGNOSTICS_READPARMS, read namelist "diagnostics_list": OK
(PID.TID 0000.0001) S/R DIAGNOSTICS_READPARMS, read namelist "DIAG_STATIS_PARMS": start
(PID.TID 0000.0001) S/R DIAGNOSTICS_READPARMS, read namelist "DIAG_STATIS_PARMS": OK
(PID.TID 0000.0001)  DIAGNOSTICS_READPARMS: global parameter summary:
(PID.TID 0000.0001)  dumpAtLast = /* always write time-ave diags at the end */
(PID.TID 0000.0001)                   F
(PID.TID 0000.0001)     ;
(PID.TID 0000.0001)  diag_mnc =   /* write NetCDF output files */
(PID.TID 0000.0001)                   T
(PID.TID 0000.0001)     ;
(PID.TID 0000.0001)  useMissingValue = /* put MissingValue where mask = 0 */
(PID.TID 0000.0001)                   F
(PID.TID 0000.0001)     ;
(PID.TID 0000.0001)  diagCG_maxIters = /* max number of iters in diag_cg2d */
(PID.TID 0000.0001)                     300
(PID.TID 0000.0001)     ;
(PID.TID 0000.0001)  diagCG_resTarget = /* residual target for diag_cg2d */
(PID.TID 0000.0001)                 1.000000000000000E-07
(PID.TID 0000.0001)     ;
(PID.TID 0000.0001)  diagCG_pcOffDFac = /* preconditioner off-diagonal factor */
(PID.TID 0000.0001)                 9.611687812379854E-01
(PID.TID 0000.0001)     ;
(PID.TID 0000.0001) -----------------------------------------------------
(PID.TID 0000.0001)  DIAGNOSTICS_READPARMS: active diagnostics summary:
(PID.TID 0000.0001) -----------------------------------------------------
(PID.TID 0000.0001) Creating Output Stream: 3d
(PID.TID 0000.0001) Output Frequency:    2592000.000000 ; Phase:           0.000000
(PID.TID 0000.0001)  Averaging Freq.:    2592000.000000 , Phase:           0.000000 , Cycle:   1
(PID.TID 0000.0001)  missing value: -9.990000000000E+02
(PID.TID 0000.0001)  Levels:    will be set later
(PID.TID 0000.0001)  Fields:    TRAC01   TRAC02   TRAC03   TRAC04   TRAC05   TRAC06   TRAC07   TRAC08   TRAC09   TRAC10
(PID.TID 0000.0001)  Fields:    TRAC11   TRAC12   TRAC13   TRAC14   TRAC15   TRAC16   TRAC17   TRAC18   TRAC19   TRAC20
(PID.TID 0000.0001)  Fields:    TRAC21   TRAC22   TRAC23   TRAC24   TRAC25   TRAC26   TRAC27   TRAC28   TRAC29   TRAC30
(PID.TID 0000.0001)  Fields:    TRAC31   TRAC32   TRAC33   TRAC34   TRAC35   PAR01    PP       Nfix     Denit    pH
(PID.TID 0000.0001)  Fields:    pCO2
(PID.TID 0000.0001) Creating Output Stream: 2d
(PID.TID 0000.0001) Output Frequency:    2592000.000000 ; Phase:           0.000000
(PID.TID 0000.0001)  Averaging Freq.:    2592000.000000 , Phase:           0.000000 , Cycle:   1
(PID.TID 0000.0001)  missing value: -9.990000000000E+02
(PID.TID 0000.0001)  Levels:    will be set later
(PID.TID 0000.0001)  Fields:    fluxCO2  gDICsurf gALKsurf gO2surf
(PID.TID 0000.0001) -----------------------------------------------------
(PID.TID 0000.0001)  DIAGNOSTICS_READPARMS: statistics diags. summary:
(PID.TID 0000.0001) Creating Stats. Output Stream: statsPP
(PID.TID 0000.0001) Output Frequency:      10800.000000 ; Phase:           0.000000
(PID.TID 0000.0001)  Regions:   0
(PID.TID 0000.0001)  Fields:    PP
(PID.TID 0000.0001) Creating Stats. Output Stream: statsNfix
(PID.TID 0000.0001) Output Frequency:      10800.000000 ; Phase:           0.000000
(PID.TID 0000.0001)  Regions:   0
(PID.TID 0000.0001)  Fields:    Nfix
(PID.TID 0000.0001) Creating Stats. Output Stream: statsDenit
(PID.TID 0000.0001) Output Frequency:      10800.000000 ; Phase:           0.000000
(PID.TID 0000.0001)  Regions:   0
(PID.TID 0000.0001)  Fields:    Denit
(PID.TID 0000.0001) -----------------------------------------------------
(PID.TID 0000.0001) 
(PID.TID 0000.0001)  OFFLINE_RESET_PARMS: => turn off Temp,Salt & Mom_Stepping flags
(PID.TID 0000.0001) SET_PARMS: done
(PID.TID 0000.0001) Enter INI_VERTICAL_GRID: setInterFDr=    T ; setCenterDr=    F
(PID.TID 0000.0001) %MON XC_max                       =   3.5950000000000E+02
(PID.TID 0000.0001) %MON XC_min                       =   5.0000000000000E-01
(PID.TID 0000.0001) %MON XC_mean                      =   1.8000000000000E+02
(PID.TID 0000.0001) %MON XC_sd                        =   1.0392264751567E+02
(PID.TID 0000.0001) %MON XG_max                       =   3.5900000000000E+02
(PID.TID 0000.0001) %MON XG_min                       =   0.0000000000000E+00
(PID.TID 0000.0001) %MON XG_mean                      =   1.7950000000000E+02
(PID.TID 0000.0001) %MON XG_sd                        =   1.0392264751567E+02
(PID.TID 0000.0001) %MON DXC_max                      =   1.1117324005452E+05
(PID.TID 0000.0001) %MON DXC_min                      =   2.0260485279198E+04
(PID.TID 0000.0001) %MON DXC_mean                     =   7.8416312620425E+04
(PID.TID 0000.0001) %MON DXC_sd                       =   2.8072575688353E+04
(PID.TID 0000.0001) %MON DXF_max                      =   1.1117324005452E+05
(PID.TID 0000.0001) %MON DXF_min                      =   2.0260485279198E+04
(PID.TID 0000.0001) %MON DXF_mean                     =   7.8416312620425E+04
(PID.TID 0000.0001) %MON DXF_sd                       =   2.8072575688353E+04
(PID.TID 0000.0001) %MON DXG_max                      =   1.1117747335204E+05
(PID.TID 0000.0001) %MON DXG_min                      =   1.9305765645195E+04
(PID.TID 0000.0001) %MON DXG_mean                     =   7.8413326767521E+04
(PID.TID 0000.0001) %MON DXG_sd                       =   2.8078861897602E+04
(PID.TID 0000.0001) %MON DXV_max                      =   1.1117747335204E+05
(PID.TID 0000.0001) %MON DXV_min                      =   1.9305765645195E+04
(PID.TID 0000.0001) %MON DXV_mean                     =   7.8413326767521E+04
(PID.TID 0000.0001) %MON DXV_sd                       =   2.8078861897602E+04
(PID.TID 0000.0001) %MON YC_max                       =   7.9500000000000E+01
(PID.TID 0000.0001) %MON YC_min                       =  -7.9500000000000E+01
(PID.TID 0000.0001) %MON YC_mean                      =   0.0000000000000E+00
(PID.TID 0000.0001) %MON YC_sd                        =   4.6187119416565E+01
(PID.TID 0000.0001) %MON YG_max                       =   7.9000000000000E+01
(PID.TID 0000.0001) %MON YG_min                       =  -8.0000000000000E+01
(PID.TID 0000.0001) %MON YG_mean                      =  -5.0000000000000E-01
(PID.TID 0000.0001) %MON YG_sd                        =   4.6187119416565E+01
(PID.TID 0000.0001) %MON DYC_max                      =   1.1117747335204E+05
(PID.TID 0000.0001) %MON DYC_min                      =   1.1117747335204E+05
(PID.TID 0000.0001) %MON DYC_mean                     =   1.1117747335204E+05
(PID.TID 0000.0001) %MON DYC_sd                       =   3.6961864680052E-09
(PID.TID 0000.0001) %MON DYF_max                      =   1.1117747335204E+05
(PID.TID 0000.0001) %MON DYF_min                      =   1.1117747335204E+05
(PID.TID 0000.0001) %MON DYF_mean                     =   1.1117747335204E+05
(PID.TID 0000.0001) %MON DYF_sd                       =   3.6961864680052E-09
(PID.TID 0000.0001) %MON DYG_max                      =   1.1117747335204E+05
(PID.TID 0000.0001) %MON DYG_min                      =   1.1117747335204E+05
(PID.TID 0000.0001) %MON DYG_mean                     =   1.1117747335204E+05
(PID.TID 0000.0001) %MON DYG_sd                       =   3.6961864680052E-09
(PID.TID 0000.0001) %MON DYU_max                      =   1.1117747335204E+05
(PID.TID 0000.0001) %MON DYU_min                      =   1.1117747335204E+05
(PID.TID 0000.0001) %MON DYU_mean                     =   1.1117747335204E+05
(PID.TID 0000.0001) %MON DYU_sd                       =   3.6961864680052E-09
(PID.TID 0000.0001) %MON RA_max                       =   1.2359803056756E+10
(PID.TID 0000.0001) %MON RA_min                       =   2.2524809726008E+09
(PID.TID 0000.0001) %MON RA_mean                      =   8.7180168532477E+09
(PID.TID 0000.0001) %MON RA_sd                        =   3.1209984222261E+09
(PID.TID 0000.0001) %MON RAW_max                      =   1.2359803056756E+10
(PID.TID 0000.0001) %MON RAW_min                      =   2.2524809726008E+09
(PID.TID 0000.0001) %MON RAW_mean                     =   8.7180168532477E+09
(PID.TID 0000.0001) %MON RAW_sd                       =   3.1209984222261E+09
(PID.TID 0000.0001) %MON RAS_max                      =   1.2360273698104E+10
(PID.TID 0000.0001) %MON RAS_min                      =   2.1463390031403E+09
(PID.TID 0000.0001) %MON RAS_mean                     =   8.7176848978793E+09
(PID.TID 0000.0001) %MON RAS_sd                       =   3.1216972982169E+09
(PID.TID 0000.0001) %MON RAZ_max                      =   1.2360273698104E+10
(PID.TID 0000.0001) %MON RAZ_min                      =   2.1463390031403E+09
(PID.TID 0000.0001) %MON RAZ_mean                     =   8.7176848978793E+09
(PID.TID 0000.0001) %MON RAZ_sd                       =   3.1216972982169E+09
(PID.TID 0000.0001) %MON AngleCS_max                  =   1.0000000000000E+00
(PID.TID 0000.0001) %MON AngleCS_min                  =   1.0000000000000E+00
(PID.TID 0000.0001) %MON AngleCS_mean                 =   1.0000000000000E+00
(PID.TID 0000.0001) %MON AngleCS_sd                   =   0.0000000000000E+00
(PID.TID 0000.0001) %MON AngleSN_max                  =   0.0000000000000E+00
(PID.TID 0000.0001) %MON AngleSN_min                  =   0.0000000000000E+00
(PID.TID 0000.0001) %MON AngleSN_mean                 =   0.0000000000000E+00
(PID.TID 0000.0001) %MON AngleSN_sd                   =   0.0000000000000E+00
(PID.TID 0000.0001)  MDS_READ_FIELD: opening global file: ../../../data/eccov3/bathy_fl.bin
(PID.TID 0000.0001) // =======================================================
(PID.TID 0000.0001) // Field Model R_low (ini_masks_etc)
(PID.TID 0000.0001) // CMIN =         -5.700000000000000E+03
(PID.TID 0000.0001) // CMAX =         -3.500000000000000E+01
(PID.TID 0000.0001) // CINT =          2.098148148148148E+02
(PID.TID 0000.0001) // SYMBOLS (CMIN->CMAX): -abcdefghijklmnopqrstuvwxyz+
(PID.TID 0000.0001) //                  0.0: .
(PID.TID 0000.0001) // RANGE I (Lo:Hi:Step):(    -3:    94:     1)
(PID.TID 0000.0001) // RANGE J (Lo:Hi:Step):(    44:    -3:    -1)
(PID.TID 0000.0001) // RANGE K (Lo:Hi:Step):(   1:   1:   1)
(PID.TID 0000.0001) // =======================================================
(PID.TID 0000.0001) K =   1
(PID.TID 0000.0001) //                I=6       I=16      I=26      I=36      I=46      I=48      I=58      I=68      I=78      I=88
(PID.TID 0000.0001) // |--J--|321012345|789012345|789012345|789012345|789012345|789234567|901234567|901234567|901234567|901234567|901234
(PID.TID 0000.0001) //     44 geebbbbbbbbebbbbbeeeegjnzzqgegjgeeeggjjb-bbbeeejnljjjeejnljjjlllnjjggebbbbeeggggggggggjjllnnnjjjjgjjjjjgjg
(PID.TID 0000.0001) //     43 ggebbbbbbbebbbbbbbeeeeeeggbbelllgggggjgbbbbeeggnljllnggnljllnnqnljggebbbbbbeeegggggggggjlnsqjjjjjjjjjjjjjj
(PID.TID 0000.0001) //     42 eeebbbbbbbbbbbbbbeeeeeeebbbbglnlgggggjebbbbeggjnlllqqgjnlllqqnlljgggebbbbbbbeegggggggggjlsslljjjjjjjjjjjjj
(PID.TID 0000.0001) //     41 eeebbbbbbbbbbbebeeeeeeeebbbbjnnlgggjggbbbbeejjnnlnnnljnnlnnnlljjgggeebbbbbbbeeggggggggjjlqqllllljjjjlllljj
(PID.TID 0000.0001) //     40 ggeeeeeebbbbbeeeeeqeeebbbbbelnnnjgeegebeeggjjnqnnnlllnqnnnllljjjjggeeebbbbbbeegggggggjjjlnnllllllllnllllll
(PID.TID 0000.0001) //     39 ggjlnjeeeeeeeeeeggeebbbbbbbglnllgebbbbeegjjlnqqnlllllqqnllllllljjggeeeebbbbbeeggggggjjjlllnnnnnlllnnnnnlll
(PID.TID 0000.0001) //     38 ggjnljjeeeeeegjgeeeebbbbbbegggeeebbbbeeggjlnnqlllllllqlllllllnljjjggeeeeebbbbegggggjjjjlllllnnnnllnnnnnnll
(PID.TID 0000.0001) //     37 ggjgggggeegjgggeeeeeeeeebeeebbbbbbbbeeggllnqqqnnnnnnnqnnnnnnnnnlljggeeeebbbeeegggggjjjjllllllllllllllllnnn
(PID.TID 0000.0001) //     36 jjgggeegjgggeeeeeeeeeeeegeebbbb---beegjlqqqqqqqqssqnnqqqssqnnnnlljjggeeeeeeeeeggjjjjjjjjjjllllllllllllllll
(PID.TID 0000.0001) //     35 jjjgggeeggggeeeeeeeeeeegeeebbb---bbegjnnqqqqqssssssqnssssssqnuvnlljgggeeeeeeegjnljjjjjjjjjllljjjjjjjllllll
(PID.TID 0000.0001) //     34 gggjggeeegjnjeeeeeeeee-beeebbb--bbegjnlllnnnllqnnqqnllqnnqqnluyvqjjgggeeeeegjnuyunnnlljjlljllljjjjjjljjjll
(PID.TID 0000.0001) //     33 jggjgggeeggqljgeeeeeeebbebeebbbbbbggnljjjjggjjjjjjlljjjjjjlljjjjjjjgggggggjjnsyyzzzyuqnllllllljjjjjjjjjjjj
(PID.TID 0000.0001) //     32 jjjjjjggjjjljjggggeegeeeeeeeebbbbegjjgjgggggggggggggggggggggggggggggggggglqnquvz+++uqqnnlllljjjjgggjjjjjjj
(PID.TID 0000.0001) //     31 llljjjjjjjlnggjjgggeggggggggeeeeeggjgeeeeeggggggggggggggggggggggggggggeeejjssssz+..yvqnnlljjjjggggggggjjjj
(PID.TID 0000.0001) //     30 nnnnlllnlljjggjjjljjjjjjggggeegeggeebebbeggjjjjgggggejjgggggeegeeegggeeeeeegnnqsuyxyyyxslljjjgggggggggggjj
[...]
(PID.TID 0000.0001) %MON trcstat_ptracer29_mean       =   6.7921569080494E-03
(PID.TID 0000.0001) %MON trcstat_ptracer29_sd         =   4.1453329950387E-02
(PID.TID 0000.0001) %MON trcstat_ptracer29_del2       =   4.3873640090618E-05
(PID.TID 0000.0001) %MON trcstat_ptracer30_max        =   4.3113055385233E-01
(PID.TID 0000.0001) %MON trcstat_ptracer30_min        =  -1.8857645111099E-08
(PID.TID 0000.0001) %MON trcstat_ptracer30_mean       =   6.7109974802198E-04
(PID.TID 0000.0001) %MON trcstat_ptracer30_sd         =   5.6811666384410E-03
(PID.TID 0000.0001) %MON trcstat_ptracer30_del2       =   1.4425053333500E-05
(PID.TID 0000.0001) %MON trcstat_ptracer31_max        =   2.2765412967796E-01
(PID.TID 0000.0001) %MON trcstat_ptracer31_min        =  -1.8855809565600E-08
(PID.TID 0000.0001) %MON trcstat_ptracer31_mean       =   4.6220074671516E-04
(PID.TID 0000.0001) %MON trcstat_ptracer31_sd         =   3.6966739939866E-03
(PID.TID 0000.0001) %MON trcstat_ptracer31_del2       =   8.4859485665495E-06
(PID.TID 0000.0001) %MON trcstat_ptracer32_max        =   2.0671925242170E-01
(PID.TID 0000.0001) %MON trcstat_ptracer32_min        =  -1.4750526973191E-07
(PID.TID 0000.0001) %MON trcstat_ptracer32_mean       =   4.2995437923789E-04
(PID.TID 0000.0001) %MON trcstat_ptracer32_sd         =   3.3692205386201E-03
(PID.TID 0000.0001) %MON trcstat_ptracer32_del2       =   7.4496885984895E-06
(PID.TID 0000.0001) %MON trcstat_ptracer33_max        =   1.9802380949032E-01
(PID.TID 0000.0001) %MON trcstat_ptracer33_min        =  -1.5980566726904E-07
(PID.TID 0000.0001) %MON trcstat_ptracer33_mean       =   4.1218242021412E-04
(PID.TID 0000.0001) %MON trcstat_ptracer33_sd         =   3.2190315621450E-03
(PID.TID 0000.0001) %MON trcstat_ptracer33_del2       =   7.0586746308385E-06
(PID.TID 0000.0001) %MON trcstat_ptracer34_max        =   1.7839372417982E-02
(PID.TID 0000.0001) %MON trcstat_ptracer34_min        =  -1.8852751461079E-09
(PID.TID 0000.0001) %MON trcstat_ptracer34_mean       =   3.4632542731612E-05
(PID.TID 0000.0001) %MON trcstat_ptracer34_sd         =   2.7332298006544E-04
(PID.TID 0000.0001) %MON trcstat_ptracer34_del2       =   6.1376193844976E-07
(PID.TID 0000.0001) %MON trcstat_ptracer35_max        =   3.0404229994613E-01
(PID.TID 0000.0001) %MON trcstat_ptracer35_min        =  -2.1287326600157E-08
(PID.TID 0000.0001) %MON trcstat_ptracer35_mean       =   6.0087289173685E-04
(PID.TID 0000.0001) %MON trcstat_ptracer35_sd         =   4.9002019790319E-03
(PID.TID 0000.0001) %MON trcstat_ptracer35_del2       =   1.1739012121445E-05
(PID.TID 0000.0001) // =======================================================
(PID.TID 0000.0001) // End MONITOR ptracers field statistics
(PID.TID 0000.0001) // =======================================================
 Compute Stats, Diag. #    672  PP        vol(   0 ): 1.326E+18  Parms: SM P    MR      
 Compute Stats, Diag. #    673  Nfix      vol(   0 ): 1.326E+18  Parms: SM P    MR      
 Compute Stats, Diag. #    674  Denit     vol(   0 ): 1.326E+18  Parms: SM P    MR      
(PID.TID 0000.0001) DIAGSTATS_CLOSE_IO: close file: statsPP.0000000000.txt , unit=     9
(PID.TID 0000.0001) DIAGSTATS_CLOSE_IO: close file: statsNfix.0000000000.txt , unit=    10
(PID.TID 0000.0001) DIAGSTATS_CLOSE_IO: close file: statsDenit.0000000000.txt , unit=    16
 prec           1          64
(PID.TID 0000.0001) %CHECKPOINT         4 ckptA
(PID.TID 0000.0001)   Seconds in section "ALL                    [THE_MODEL_MAIN]":
(PID.TID 0000.0001)           User time:   34.939999999999998
(PID.TID 0000.0001)         System time:   2.4100000000000001
(PID.TID 0000.0001)     Wall clock time:   39.134014129638672
(PID.TID 0000.0001)          No. starts:           1
(PID.TID 0000.0001)           No. stops:           1
(PID.TID 0000.0001)   Seconds in section "INITIALISE_FIXED       [THE_MODEL_MAIN]":
(PID.TID 0000.0001)           User time:   4.2800000000000002
(PID.TID 0000.0001)         System time:  0.22000000000000003
(PID.TID 0000.0001)     Wall clock time:   5.6435940265655518
(PID.TID 0000.0001)          No. starts:           1
(PID.TID 0000.0001)           No. stops:           1
(PID.TID 0000.0001)   Seconds in section "THE_MAIN_LOOP          [THE_MODEL_MAIN]":
(PID.TID 0000.0001)           User time:   30.660000000000000
(PID.TID 0000.0001)         System time:   2.1799999999999997
(PID.TID 0000.0001)     Wall clock time:   33.488623857498169
(PID.TID 0000.0001)          No. starts:           1
(PID.TID 0000.0001)           No. stops:           1
(PID.TID 0000.0001)   Seconds in section "INITIALISE_VARIA    [THE_MAIN_LOOP]":
(PID.TID 0000.0001)           User time:   3.9600000000000000
(PID.TID 0000.0001)         System time:  0.55000000000000004
(PID.TID 0000.0001)     Wall clock time:   4.5601129531860352
(PID.TID 0000.0001)          No. starts:           1
(PID.TID 0000.0001)           No. stops:           1
(PID.TID 0000.0001)   Seconds in section "MAIN LOOP           [THE_MAIN_LOOP]":
(PID.TID 0000.0001)           User time:   26.699999999999999
(PID.TID 0000.0001)         System time:   1.6299999999999999
(PID.TID 0000.0001)     Wall clock time:   28.928477764129639
(PID.TID 0000.0001)          No. starts:           1
(PID.TID 0000.0001)           No. stops:           1
(PID.TID 0000.0001)   Seconds in section "MAIN_DO_LOOP        [THE_MAIN_LOOP]":
(PID.TID 0000.0001)           User time:   26.699999999999999
(PID.TID 0000.0001)         System time:   1.6300000000000001
(PID.TID 0000.0001)     Wall clock time:   28.928425788879395
(PID.TID 0000.0001)          No. starts:           4
(PID.TID 0000.0001)           No. stops:           4
(PID.TID 0000.0001)   Seconds in section "FORWARD_STEP        [MAIN_DO_LOOP]":
(PID.TID 0000.0001)           User time:   26.699999999999999
(PID.TID 0000.0001)         System time:   1.6300000000000001
(PID.TID 0000.0001)     Wall clock time:   28.928342819213867
(PID.TID 0000.0001)          No. starts:           4
(PID.TID 0000.0001)           No. stops:           4
(PID.TID 0000.0001)   Seconds in section "DO_STATEVARS_DIAGS  [FORWARD_STEP]":
(PID.TID 0000.0001)           User time:  0.13000000000000256
(PID.TID 0000.0001)         System time:   0.0000000000000000
(PID.TID 0000.0001)     Wall clock time:  0.12726187705993652
(PID.TID 0000.0001)          No. starts:           8
(PID.TID 0000.0001)           No. stops:           8
(PID.TID 0000.0001)   Seconds in section "LOAD_FIELDS_DRIVER  [FORWARD_STEP]":
(PID.TID 0000.0001)           User time:   2.9999999999997584E-002
(PID.TID 0000.0001)         System time:   0.0000000000000000
(PID.TID 0000.0001)     Wall clock time:   3.6766052246093750E-002
(PID.TID 0000.0001)          No. starts:           4
(PID.TID 0000.0001)           No. stops:           4
(PID.TID 0000.0001)   Seconds in section "EXF_GETFORCING     [LOAD_FLDS_DRIVER]":
(PID.TID 0000.0001)           User time:   1.9999999999999574E-002
(PID.TID 0000.0001)         System time:   0.0000000000000000
(PID.TID 0000.0001)     Wall clock time:   3.3540964126586914E-002
(PID.TID 0000.0001)          No. starts:           4
(PID.TID 0000.0001)           No. stops:           4
(PID.TID 0000.0001)   Seconds in section "EXTERNAL_FLDS_LOAD [LOAD_FLDS_DRIVER]":
(PID.TID 0000.0001)           User time:   0.0000000000000000
(PID.TID 0000.0001)         System time:   0.0000000000000000
(PID.TID 0000.0001)     Wall clock time:   1.4886856079101562E-003
(PID.TID 0000.0001)          No. starts:           4
(PID.TID 0000.0001)           No. stops:           4
(PID.TID 0000.0001)   Seconds in section "DO_ATMOSPHERIC_PHYS [FORWARD_STEP]":
(PID.TID 0000.0001)           User time:   0.0000000000000000
(PID.TID 0000.0001)         System time:   0.0000000000000000
(PID.TID 0000.0001)     Wall clock time:   1.2803077697753906E-004
(PID.TID 0000.0001)          No. starts:           4
(PID.TID 0000.0001)           No. stops:           4
(PID.TID 0000.0001)   Seconds in section "DO_OCEANIC_PHYS     [FORWARD_STEP]":
(PID.TID 0000.0001)           User time:   6.0000000000002274E-002
(PID.TID 0000.0001)         System time:   0.0000000000000000
(PID.TID 0000.0001)     Wall clock time:   6.0040712356567383E-002
(PID.TID 0000.0001)          No. starts:           4
(PID.TID 0000.0001)           No. stops:           4
(PID.TID 0000.0001)   Seconds in section "GCHEM_CALC_TENDENCY [FORWARD_STEP]":
(PID.TID 0000.0001)           User time:   0.0000000000000000
(PID.TID 0000.0001)         System time:   0.0000000000000000
(PID.TID 0000.0001)     Wall clock time:   6.4134597778320312E-005
(PID.TID 0000.0001)          No. starts:           4
(PID.TID 0000.0001)           No. stops:           4
(PID.TID 0000.0001)   Seconds in section "THERMODYNAMICS      [FORWARD_STEP]":
(PID.TID 0000.0001)           User time:   17.960000000000001
(PID.TID 0000.0001)         System time:   0.0000000000000000
(PID.TID 0000.0001)     Wall clock time:   18.058054924011230
(PID.TID 0000.0001)          No. starts:           4
(PID.TID 0000.0001)           No. stops:           4
(PID.TID 0000.0001)   Seconds in section "OFFLINE_FLDS_LOAD   [FORWARD_STEP]":
(PID.TID 0000.0001)           User time:   1.1199999999999974
(PID.TID 0000.0001)         System time:  0.17999999999999994
(PID.TID 0000.0001)     Wall clock time:   1.3088259696960449
(PID.TID 0000.0001)          No. starts:           4
(PID.TID 0000.0001)           No. stops:           4
(PID.TID 0000.0001)   Seconds in section "TRC_CORRECTION_STEP [FORWARD_STEP]":
(PID.TID 0000.0001)           User time:   0.0000000000000000
(PID.TID 0000.0001)         System time:   0.0000000000000000
(PID.TID 0000.0001)     Wall clock time:   4.3869018554687500E-005
(PID.TID 0000.0001)          No. starts:           4
(PID.TID 0000.0001)           No. stops:           4
(PID.TID 0000.0001)   Seconds in section "GCHEM_FORCING_SEP  [FORWARD_STEP]":
(PID.TID 0000.0001)           User time:   3.4499999999999993
(PID.TID 0000.0001)         System time:   1.0000000000000009E-002
(PID.TID 0000.0001)     Wall clock time:   3.4778759479522705
(PID.TID 0000.0001)          No. starts:           4
(PID.TID 0000.0001)           No. stops:           4
(PID.TID 0000.0001)   Seconds in section "GCHEM_DIAGNOSTICS [GCHEM_FORCING_SEP]":
(PID.TID 0000.0001)           User time:   0.0000000000000000
(PID.TID 0000.0001)         System time:   0.0000000000000000
(PID.TID 0000.0001)     Wall clock time:   3.4880638122558594E-004
(PID.TID 0000.0001)          No. starts:           4
(PID.TID 0000.0001)           No. stops:           4
(PID.TID 0000.0001)   Seconds in section "GUD_CONS_SURF [GCHEM_FORCING_SEP]":
(PID.TID 0000.0001)           User time:   8.9999999999996305E-002
(PID.TID 0000.0001)         System time:   0.0000000000000000
(PID.TID 0000.0001)     Wall clock time:  0.10101580619812012
(PID.TID 0000.0001)          No. starts:           4
(PID.TID 0000.0001)           No. stops:           4
(PID.TID 0000.0001)   Seconds in section "GUD_CONS [GCHEM_FORCING_SEP]":
(PID.TID 0000.0001)           User time:   1.1099999999999994
(PID.TID 0000.0001)         System time:   0.0000000000000000
(PID.TID 0000.0001)     Wall clock time:   1.1154749393463135
(PID.TID 0000.0001)          No. starts:           8
(PID.TID 0000.0001)           No. stops:           8
(PID.TID 0000.0001)   Seconds in section "GCHEM_SURFMEAN [GCHEM_FORCING_SEP]":
(PID.TID 0000.0001)           User time:   0.0000000000000000
(PID.TID 0000.0001)         System time:   0.0000000000000000
(PID.TID 0000.0001)     Wall clock time:   7.0595741271972656E-004
(PID.TID 0000.0001)          No. starts:           4
(PID.TID 0000.0001)           No. stops:           4
(PID.TID 0000.0001)   Seconds in section "GUD_FORCING [GCHEM_FORCING_SEP]":
(PID.TID 0000.0001)           User time:   2.2499999999999929
(PID.TID 0000.0001)         System time:   1.0000000000000009E-002
(PID.TID 0000.0001)     Wall clock time:   2.2599830627441406
(PID.TID 0000.0001)          No. starts:           8
(PID.TID 0000.0001)           No. stops:           8
(PID.TID 0000.0001)   Seconds in section "GUD_LIGHT [GUD_FORCING]":
(PID.TID 0000.0001)           User time:   3.9999999999999147E-002
(PID.TID 0000.0001)         System time:   0.0000000000000000
(PID.TID 0000.0001)     Wall clock time:   3.4451484680175781E-002
(PID.TID 0000.0001)          No. starts:           8
(PID.TID 0000.0001)           No. stops:           8
(PID.TID 0000.0001)   Seconds in section "GUD_SURFFORCING [GUD_FORCING]":
(PID.TID 0000.0001)           User time:  0.52000000000000668
(PID.TID 0000.0001)         System time:   0.0000000000000000
(PID.TID 0000.0001)     Wall clock time:  0.50549364089965820
(PID.TID 0000.0001)          No. starts:           8
(PID.TID 0000.0001)           No. stops:           8
(PID.TID 0000.0001)   Seconds in section "GUD_FE_CHEM [GUD_FORCING]":
(PID.TID 0000.0001)           User time:   4.9999999999997158E-002
(PID.TID 0000.0001)         System time:   0.0000000000000000
(PID.TID 0000.0001)     Wall clock time:   6.4269304275512695E-002
(PID.TID 0000.0001)          No. starts:          16
(PID.TID 0000.0001)           No. stops:          16
(PID.TID 0000.0001)   Seconds in section "GUD_FE_DUST [GUD_FORCING]":
(PID.TID 0000.0001)           User time:   0.0000000000000000
(PID.TID 0000.0001)         System time:   0.0000000000000000
(PID.TID 0000.0001)     Wall clock time:   3.5238265991210938E-004
(PID.TID 0000.0001)          No. starts:           8
(PID.TID 0000.0001)           No. stops:           8
(PID.TID 0000.0001)   Seconds in section "GUD_FE_SCAV [GUD_FORCING]":
(PID.TID 0000.0001)           User time:   1.9999999999996021E-002
(PID.TID 0000.0001)         System time:   0.0000000000000000
(PID.TID 0000.0001)     Wall clock time:   3.1333684921264648E-002
(PID.TID 0000.0001)          No. starts:           8
(PID.TID 0000.0001)           No. stops:           8
(PID.TID 0000.0001)   Seconds in section "GUD_FE_SED [GUD_FORCING]":
(PID.TID 0000.0001)           User time:   9.9999999999980105E-003
(PID.TID 0000.0001)         System time:   0.0000000000000000
(PID.TID 0000.0001)     Wall clock time:   3.5881996154785156E-003
(PID.TID 0000.0001)          No. starts:           8
(PID.TID 0000.0001)           No. stops:           8
(PID.TID 0000.0001)   Seconds in section "GUD_MODEL [GUD_FORCING]":
(PID.TID 0000.0001)           User time:  0.98000000000000043
(PID.TID 0000.0001)         System time:   0.0000000000000000
(PID.TID 0000.0001)     Wall clock time:  0.97636294364929199
(PID.TID 0000.0001)          No. starts:           8
(PID.TID 0000.0001)           No. stops:           8
(PID.TID 0000.0001)   Seconds in section "GUD_SINKING [GUD_FORCING]":
(PID.TID 0000.0001)           User time:  0.30000000000000071
(PID.TID 0000.0001)         System time:   0.0000000000000000
(PID.TID 0000.0001)     Wall clock time:  0.30148839950561523
(PID.TID 0000.0001)          No. starts:           8
(PID.TID 0000.0001)           No. stops:           8
(PID.TID 0000.0001)   Seconds in section "GUD_STEP [GUD_FORCING]":
(PID.TID 0000.0001)           User time:  0.20999999999999375
(PID.TID 0000.0001)         System time:   0.0000000000000000
(PID.TID 0000.0001)     Wall clock time:  0.20789885520935059
(PID.TID 0000.0001)          No. starts:           8
(PID.TID 0000.0001)           No. stops:           8
(PID.TID 0000.0001)   Seconds in section "DIAGS_FILL [GUD_FORCING]":
(PID.TID 0000.0001)           User time:   7.0000000000000284E-002
(PID.TID 0000.0001)         System time:   0.0000000000000000
(PID.TID 0000.0001)     Wall clock time:   5.8212280273437500E-002
(PID.TID 0000.0001)          No. starts:           8
(PID.TID 0000.0001)           No. stops:           8
(PID.TID 0000.0001)   Seconds in section "BLOCKING_EXCHANGES  [FORWARD_STEP]":
(PID.TID 0000.0001)           User time:  0.11999999999999744
(PID.TID 0000.0001)         System time:   0.0000000000000000
(PID.TID 0000.0001)     Wall clock time:  0.13357305526733398
(PID.TID 0000.0001)          No. starts:           4
(PID.TID 0000.0001)           No. stops:           4
(PID.TID 0000.0001)   Seconds in section "DO_STATEVARS_TAVE   [FORWARD_STEP]":
(PID.TID 0000.0001)           User time:   0.0000000000000000
(PID.TID 0000.0001)         System time:   0.0000000000000000
(PID.TID 0000.0001)     Wall clock time:   4.3869018554687500E-005
(PID.TID 0000.0001)          No. starts:           4
(PID.TID 0000.0001)           No. stops:           4
(PID.TID 0000.0001)   Seconds in section "MONITOR             [FORWARD_STEP]":
(PID.TID 0000.0001)           User time:  0.25000000000000000
(PID.TID 0000.0001)         System time:   0.0000000000000000
(PID.TID 0000.0001)     Wall clock time:  0.25157332420349121
(PID.TID 0000.0001)          No. starts:           4
(PID.TID 0000.0001)           No. stops:           4
(PID.TID 0000.0001)   Seconds in section "DO_THE_MODEL_IO     [FORWARD_STEP]":
(PID.TID 0000.0001)           User time:   1.0099999999999980
(PID.TID 0000.0001)         System time:   0.0000000000000000
(PID.TID 0000.0001)     Wall clock time:   1.0182249546051025
(PID.TID 0000.0001)          No. starts:           4
(PID.TID 0000.0001)           No. stops:           4
(PID.TID 0000.0001)   Seconds in section "PTRACERS_RESET      [FORWARD_STEP]":
(PID.TID 0000.0001)           User time:   0.0000000000000000
(PID.TID 0000.0001)         System time:   0.0000000000000000
(PID.TID 0000.0001)     Wall clock time:   4.6968460083007812E-005
(PID.TID 0000.0001)          No. starts:           4
(PID.TID 0000.0001)           No. stops:           4
(PID.TID 0000.0001)   Seconds in section "DO_WRITE_PICKUP     [FORWARD_STEP]":
(PID.TID 0000.0001)           User time:   2.5499999999999972
(PID.TID 0000.0001)         System time:   1.4399999999999999
(PID.TID 0000.0001)     Wall clock time:   4.4547407627105713
(PID.TID 0000.0001)          No. starts:           4
(PID.TID 0000.0001)           No. stops:           4
(PID.TID 0000.0001) // ======================================================
(PID.TID 0000.0001) // Tile <-> Tile communication statistics
(PID.TID 0000.0001) // ======================================================
(PID.TID 0000.0001) // o Tile number: 000001
(PID.TID 0000.0001) //         No. X exchanges =              0
(PID.TID 0000.0001) //            Max. X spins =              0
(PID.TID 0000.0001) //            Min. X spins =     1000000000
(PID.TID 0000.0001) //          Total. X spins =              0
(PID.TID 0000.0001) //            Avg. X spins =       0.00E+00
(PID.TID 0000.0001) //         No. Y exchanges =              0
(PID.TID 0000.0001) //            Max. Y spins =              0
(PID.TID 0000.0001) //            Min. Y spins =     1000000000
(PID.TID 0000.0001) //          Total. Y spins =              0
(PID.TID 0000.0001) //            Avg. Y spins =       0.00E+00
(PID.TID 0000.0001) // o Tile number: 000002
(PID.TID 0000.0001) //         No. X exchanges =              0
(PID.TID 0000.0001) //            Max. X spins =              0
(PID.TID 0000.0001) //            Min. X spins =     1000000000
(PID.TID 0000.0001) //          Total. X spins =              0
(PID.TID 0000.0001) //            Avg. X spins =       0.00E+00
(PID.TID 0000.0001) //         No. Y exchanges =              0
(PID.TID 0000.0001) //            Max. Y spins =              0
(PID.TID 0000.0001) //            Min. Y spins =     1000000000
(PID.TID 0000.0001) //          Total. Y spins =              0
(PID.TID 0000.0001) //            Avg. Y spins =       0.00E+00
(PID.TID 0000.0001) // o Thread number: 000001
(PID.TID 0000.0001) //            No. barriers =          11802
(PID.TID 0000.0001) //      Max. barrier spins =              1
(PID.TID 0000.0001) //      Min. barrier spins =              1
(PID.TID 0000.0001) //     Total barrier spins =          11802
(PID.TID 0000.0001) //      Avg. barrier spins =       1.00E+00
PROGRAM MAIN: Execution ended Normally
